<?xml version="1.0" encoding="UTF-8"?>

<!-- generated on 2025-11-26T10:35:31.582801-05:00 by Eclipse SUMO netedit 1.25.0
-->

<routes xmlns:xsi="http://www.w3.org/2001/XMLSchema-instance" xsi:noNamespaceSchemaLocation="http://sumo.dlr.de/xsd/routes_file.xsd">
    <!-- VTypes -->
    <vType id="veh_passenger" vClass="passenger"/>
    <!-- Vehicles, persons and containers (sorted by depart) -->
    <trip id="veh0" type="veh_passenger" depart="0.00" departLane="best" from="230675925" to="34940939#8"/>
    <trip id="veh1" type="veh_passenger" depart="0.61" departLane="best" from="906519325#1" to="-64950074#1"/>
    <trip id="veh2" type="veh_passenger" depart="1.22" departLane="best" from="-98773373" to="-122905451#0"/>
    <trip id="veh3" type="veh_passenger" depart="1.83" departLane="best" from="-361881297#2" to="-1018198734#1"/>
    <trip id="veh4" type="veh_passenger" depart="2.45" departLane="best" from="-566408609#0" to="335043412"/>
    <trip id="veh5" type="veh_passenger" depart="3.06" departLane="best" from="99760016#1" to="571108744#2"/>
    <trip id="veh6" type="veh_passenger" depart="3.67" departLane="best" from="149827883#10" to="261158259#0"/>
    <trip id="veh7" type="veh_passenger" depart="4.28" departLane="best" from="571096563#5" to="1154532115#2"/>
    <trip id="veh8" type="veh_passenger" depart="4.89" departLane="best" from="-31056963#3" to="790810378#0"/>
    <trip id="veh9" type="veh_passenger" depart="5.50" departLane="best" from="423206796#1" to="-361903024#6"/>
    <trip id="veh10" type="veh_passenger" depart="6.11" departLane="best" from="-30608130#1" to="-345322384#1"/>
    <trip id="veh11" type="veh_passenger" depart="6.72" departLane="best" from="98775538#6" to="-352319073#1"/>
    <trip id="veh12" type="veh_passenger" depart="7.34" departLane="best" from="44007693#2" to="98783695#0"/>
    <trip id="veh13" type="veh_passenger" depart="7.95" departLane="best" from="-123992420#7" to="173504703#1"/>
    <trip id="veh14" type="veh_passenger" depart="8.56" departLane="best" from="32289424" to="98724858#9"/>
    <trip id="veh15" type="veh_passenger" depart="9.17" departLane="best" from="-65063651#1" to="1019228190#2"/>
    <trip id="veh16" type="veh_passenger" depart="9.78" departLane="best" from="1016866939#1" to="-173395364#5"/>
    <trip id="veh17" type="veh_passenger" depart="10.39" departLane="best" from="566444491#3" to="69481481#4"/>
    <trip id="veh18" type="veh_passenger" depart="11.00" departLane="best" from="30614025#3" to="-142553204#0"/>
    <trip id="veh19" type="veh_passenger" depart="11.62" departLane="best" from="571490305" to="572153971#1"/>
    <trip id="veh20" type="veh_passenger" depart="12.23" departLane="best" from="47655768#1" to="1165278545#0"/>
    <trip id="veh21" type="veh_passenger" depart="12.84" departLane="best" departSpeed="max" from="726602204#0" to="44092478#8"/>
    <trip id="veh22" type="veh_passenger" depart="13.45" departLane="best" from="36948166#3" to="34939718"/>
    <trip id="veh23" type="veh_passenger" depart="14.06" departLane="best" from="-99868896#0" to="320096046#1"/>
    <trip id="veh24" type="veh_passenger" depart="14.67" departLane="best" from="626279607#1" to="570334897#1"/>
    <trip id="veh25" type="veh_passenger" depart="15.28" departLane="best" from="1200962124#1" to="70551073#2"/>
    <trip id="veh26" type="veh_passenger" depart="15.89" departLane="best" from="777336086#10" to="-154825197#0"/>
    <trip id="veh27" type="veh_passenger" depart="16.51" departLane="best" from="-569459635#1" to="-99870140#1"/>
    <trip id="veh28" type="veh_passenger" depart="17.12" departLane="best" from="-1019217741#1" to="576911136#1"/>
    <trip id="veh29" type="veh_passenger" depart="17.73" departLane="best" from="44851303#1" to="34941087#5"/>
    <trip id="veh30" type="veh_passenger" depart="18.34" departLane="best" from="99868924#1" to="141166087#3"/>
    <trip id="veh31" type="veh_passenger" depart="18.95" departLane="best" from="-71688738#1" to="-361881297#2"/>
    <trip id="veh32" type="veh_passenger" depart="19.56" departLane="best" from="1180137776-AddedOnRampEdge" to="777349284#3"/>
    <trip id="veh33" type="veh_passenger" depart="20.17" departLane="best" from="380118437#0" to="-234374976"/>
    <trip id="veh34" type="veh_passenger" depart="20.79" departLane="best" from="30607042#3" to="-173151796#1"/>
    <trip id="veh35" type="veh_passenger" depart="21.40" departLane="best" from="43956552#2" to="-388207449#0"/>
    <trip id="veh36" type="veh_passenger" depart="22.01" departLane="best" departSpeed="max" from="-626441114#2" to="448231109#0"/>
    <trip id="veh37" type="veh_passenger" depart="22.62" departLane="best" from="76956328#2" to="437257620#2"/>
    <trip id="veh38" type="veh_passenger" depart="23.23" departLane="best" departSpeed="max" from="1020691716" to="449117857#4"/>
    <trip id="veh39" type="veh_passenger" depart="23.84" departLane="best" from="1020079237" to="-1017821712"/>
    <trip id="veh40" type="veh_passenger" depart="24.45" departLane="best" from="1020089619#2" to="571096563#4"/>
    <trip id="veh41" type="veh_passenger" depart="25.06" departLane="best" from="44008181#1" to="-70553088#2"/>
    <trip id="veh42" type="veh_passenger" depart="25.68" departLane="best" from="777349284#5" to="76956326#0"/>
    <trip id="veh43" type="veh_passenger" depart="26.29" departLane="best" from="1020310922" to="98778177#0-AddedOnRampEdge"/>
    <trip id="veh44" type="veh_passenger" depart="26.90" departLane="best" from="1019173170" to="-30054015#0"/>
    <trip id="veh45" type="veh_passenger" depart="27.51" departLane="best" from="375276778#4" to="35084037#4"/>
    <trip id="veh46" type="veh_passenger" depart="28.12" departLane="best" from="1020991238" to="258853358#5"/>
    <trip id="veh47" type="veh_passenger" depart="28.73" departLane="best" departSpeed="max" from="347321499#0" to="98742377#1"/>
    <trip id="veh48" type="veh_passenger" depart="29.34" departLane="best" departSpeed="max" from="-31056914#2" to="1019173172#1"/>
    <trip id="veh49" type="veh_passenger" depart="29.96" departLane="best" from="98742378#4" to="512846130#10"/>
    <trip id="veh50" type="veh_passenger" depart="30.57" departLane="best" from="-31057193#7" to="30854851#2-AddedOnRampEdge"/>
    <trip id="veh51" type="veh_passenger" depart="31.18" departLane="best" from="46752298#10" to="98724826#12"/>
    <trip id="veh52" type="veh_passenger" depart="31.79" departLane="best" from="-32851893#3" to="945300917#2"/>
    <trip id="veh53" type="veh_passenger" depart="32.40" departLane="best" from="578921297#2" to="1020625348#2"/>
    <trip id="veh54" type="veh_passenger" depart="33.01" departLane="best" from="343467685#1" to="733400344"/>
    <trip id="veh55" type="veh_passenger" depart="33.62" departLane="best" departSpeed="max" from="1016152375" to="571159870#1"/>
    <trip id="veh56" type="veh_passenger" depart="34.23" departLane="best" from="35434970#1" to="-320096070"/>
    <trip id="veh57" type="veh_passenger" depart="34.85" departLane="best" from="1020079235#2-AddedOnRampEdge" to="28746588#1"/>
    <trip id="veh58" type="veh_passenger" depart="35.46" departLane="best" departSpeed="max" from="-440873389#1" to="98742392#1"/>
    <trip id="veh59" type="veh_passenger" depart="36.07" departLane="best" from="1017804909" to="1016471761#1"/>
    <trip id="veh60" type="veh_passenger" depart="36.68" departLane="best" from="370196245#4" to="345359910#2"/>
    <trip id="veh61" type="veh_passenger" depart="37.29" departLane="best" from="1069298016#1" to="1154378072"/>
    <trip id="veh62" type="veh_passenger" depart="37.90" departLane="best" from="32709535#0" to="972127253#1"/>
    <trip id="veh63" type="veh_passenger" depart="38.51" departLane="best" from="-32338996#1" to="98724826#13"/>
    <trip id="veh64" type="veh_passenger" depart="39.13" departLane="best" from="98734387#0" to="570334874#0"/>
    <trip id="veh65" type="veh_passenger" depart="39.74" departLane="best" departSpeed="max" from="64948415" to="173151796#5"/>
    <trip id="veh66" type="veh_passenger" depart="40.35" departLane="best" from="98778200#1" to="572228299"/>
    <trip id="veh67" type="veh_passenger" depart="40.96" departLane="best" departSpeed="max" from="570334879" to="31540420#3"/>
    <trip id="veh68" type="veh_passenger" depart="41.57" departLane="best" from="-945311529" to="571096592"/>
    <trip id="veh69" type="veh_passenger" depart="42.18" departLane="best" from="572097655#4" to="-1017728992"/>
    <trip id="veh70" type="veh_passenger" depart="42.79" departLane="best" departSpeed="max" from="1052671388" to="347312838#0"/>
    <trip id="veh71" type="veh_passenger" depart="43.40" departLane="best" departSpeed="max" from="-807266199" to="-440873392#0"/>
    <trip id="veh72" type="veh_passenger" depart="44.02" departLane="best" departSpeed="max" from="-65063639#1" to="-1022069968"/>
    <trip id="veh73" type="veh_passenger" depart="44.63" departLane="best" from="32757131#3" to="44533214#8"/>
    <trip id="veh74" type="veh_passenger" depart="45.24" departLane="best" departSpeed="max" from="1050506350" to="-44008106#0"/>
    <trip id="veh75" type="veh_passenger" depart="45.85" departLane="best" from="98729098#1" to="44092499#0"/>
    <trip id="veh76" type="veh_passenger" depart="46.46" departLane="best" from="569665581#0" to="571096567#0"/>
    <trip id="veh77" type="veh_passenger" depart="47.07" departLane="best" from="107255039#2" to="370196238"/>
    <trip id="veh78" type="veh_passenger" depart="47.68" departLane="best" from="1069271951" to="48938700#3"/>
    <trip id="veh79" type="veh_passenger" depart="48.30" departLane="best" from="626305345#0" to="-367447099#0"/>
    <trip id="veh80" type="veh_passenger" depart="48.91" departLane="best" from="-1020320489" to="-32338926#1"/>
    <trip id="veh81" type="veh_passenger" depart="49.52" departLane="best" from="361743369#11" to="906498192#0"/>
    <trip id="veh82" type="veh_passenger" depart="50.13" departLane="best" from="98731204#0" to="-571514003"/>
    <trip id="veh83" type="veh_passenger" depart="50.74" departLane="best" from="30175679#1" to="98742352#5"/>
    <trip id="veh84" type="veh_passenger" depart="51.35" departLane="best" from="932914923#3" to="746243143#1"/>
    <trip id="veh85" type="veh_passenger" depart="51.96" departLane="best" departSpeed="max" from="1017728992" to="1020409741#5"/>
    <trip id="veh86" type="veh_passenger" depart="52.57" departLane="best" from="-47324228#0" to="1020102890"/>
    <trip id="veh87" type="veh_passenger" depart="53.19" departLane="best" from="512846130#2" to="-64948186#5"/>
    <trip id="veh88" type="veh_passenger" depart="53.80" departLane="best" departSpeed="max" from="-626441112#1" to="31878880#6"/>
    <trip id="veh89" type="veh_passenger" depart="54.41" departLane="best" departSpeed="max" from="93331399" to="32471665#1"/>
    <trip id="veh90" type="veh_passenger" depart="55.02" departLane="best" from="607707646#1" to="571096565"/>
    <trip id="veh91" type="veh_passenger" depart="55.63" departLane="best" from="911325270" to="32894556"/>
    <trip id="veh92" type="veh_passenger" depart="56.24" departLane="best" from="149827878#0" to="32049527"/>
    <trip id="veh93" type="veh_passenger" depart="56.85" departLane="best" departSpeed="max" from="64948321#0" to="1020625348#2"/>
    <trip id="veh94" type="veh_passenger" depart="57.47" departLane="best" from="-65823937#3" to="775623152"/>
    <trip id="veh95" type="veh_passenger" depart="58.08" departLane="best" from="32339103#1" to="448031958#1"/>
    <trip id="veh96" type="veh_passenger" depart="58.69" departLane="best" from="-576504526#6" to="-154823201#3"/>
    <trip id="veh97" type="veh_passenger" depart="59.30" departLane="best" from="-98765718#2" to="30614070#4"/>
    <trip id="veh98" type="veh_passenger" depart="59.91" departLane="best" departSpeed="max" from="-1230007927#1" to="1020379142"/>
    <trip id="veh99" type="veh_passenger" depart="60.52" departLane="best" from="98742377#1" to="30659091#1"/>
    <trip id="veh100" type="veh_passenger" depart="61.13" departLane="best" departSpeed="max" from="-1016817681" to="64951356#2"/>
    <trip id="veh101" type="veh_passenger" depart="61.74" departLane="best" from="441448382#1" to="553789840#0"/>
    <trip id="veh102" type="veh_passenger" depart="62.36" departLane="best" from="107634568#7" to="571475637"/>
    <trip id="veh103" type="veh_passenger" depart="62.97" departLane="best" from="910848971#2" to="1203368734#0"/>
    <trip id="veh104" type="veh_passenger" depart="63.58" departLane="best" from="36971841#1" to="1050505253#0"/>
    <trip id="veh105" type="veh_passenger" depart="64.19" departLane="best" departSpeed="max" from="47324222#0" to="577342841#0"/>
    <trip id="veh106" type="veh_passenger" depart="64.80" departLane="best" from="1180137778-AddedOnRampEdge" to="565853616#8"/>
    <trip id="veh107" type="veh_passenger" depart="65.41" departLane="best" from="98742373#2" to="-576911141#0"/>
    <trip id="veh108" type="veh_passenger" depart="66.02" departLane="best" from="630292931#2" to="32492140#5"/>
    <trip id="veh109" type="veh_passenger" depart="66.64" departLane="best" from="98742382#2" to="-320096070"/>
    <trip id="veh110" type="veh_passenger" depart="67.25" departLane="best" from="154644403#3" to="-571855733#1"/>
    <trip id="veh111" type="veh_passenger" depart="67.86" departLane="best" from="1018799312#7" to="93329473#2"/>
    <trip id="veh112" type="veh_passenger" depart="68.47" departLane="best" from="343211406" to="1412114551"/>
    <trip id="veh113" type="veh_passenger" depart="69.08" departLane="best" from="98778200#2" to="-174295715#0"/>
    <trip id="veh114" type="veh_passenger" depart="69.69" departLane="best" departSpeed="max" from="-1022089939" to="578921289#1"/>
    <trip id="veh115" type="veh_passenger" depart="70.30" departLane="best" from="352319073#1" to="770876947"/>
    <trip id="veh116" type="veh_passenger" depart="70.91" departLane="best" from="32709335#1" to="98742401#0"/>
    <trip id="veh117" type="veh_passenger" depart="71.53" departLane="best" from="1151357852#1" to="1016152371#0"/>
    <trip id="veh118" type="veh_passenger" depart="72.14" departLane="best" from="932914901#1" to="346388982"/>
    <trip id="veh119" type="veh_passenger" depart="72.75" departLane="best" from="-1203012828#2" to="-1018583524"/>
    <trip id="veh120" type="veh_passenger" depart="73.36" departLane="best" from="-1019228190#3" to="572092390"/>
    <trip id="veh121" type="veh_passenger" depart="73.97" departLane="best" departSpeed="max" from="441792143" to="-361903048#5"/>
    <trip id="veh122" type="veh_passenger" depart="74.58" departLane="best" from="626992415" to="579383675#1"/>
    <trip id="veh123" type="veh_passenger" depart="75.19" departLane="best" departSpeed="max" from="440873396" to="367492881"/>
    <trip id="veh124" type="veh_passenger" depart="75.81" departLane="best" from="30607369#5" to="571099994#0"/>
    <trip id="veh125" type="veh_passenger" depart="76.42" departLane="best" from="160234097#4" to="98731809#5"/>
    <trip id="veh126" type="veh_passenger" depart="77.03" departLane="best" from="36971765#1" to="566401854"/>
    <trip id="veh127" type="veh_passenger" depart="77.64" departLane="best" from="98731204#13" to="99750327#2"/>
    <trip id="veh128" type="veh_passenger" depart="78.25" departLane="best" from="343452099#1" to="-361903046#0"/>
    <trip id="veh129" type="veh_passenger" depart="78.86" departLane="best" from="335043415#0" to="98726692#5"/>
    <trip id="veh130" type="veh_passenger" depart="79.47" departLane="best" from="-777349285#0" to="1019217743#1"/>
    <trip id="veh131" type="veh_passenger" depart="80.08" departLane="best" from="1020107122#0" to="1016502364"/>
    <trip id="veh132" type="veh_passenger" depart="80.70" departLane="best" from="65159609#1" to="347312838#0"/>
    <trip id="veh133" type="veh_passenger" depart="81.31" departLane="best" departSpeed="max" from="-32894600#1" to="33358858#0"/>
    <trip id="veh134" type="veh_passenger" depart="81.92" departLane="best" from="571108733#0" to="-1184908228#0"/>
    <trip id="veh135" type="veh_passenger" depart="82.53" departLane="best" from="-70551025#1" to="-1020310924#0"/>
    <trip id="veh136" type="veh_passenger" depart="83.14" departLane="best" from="571108733#1" to="258804247#4"/>
    <trip id="veh137" type="veh_passenger" depart="83.75" departLane="best" from="-1018872458#0" to="1018799309#0"/>
    <trip id="veh138" type="veh_passenger" depart="84.36" departLane="best" from="-654742597#3" to="365878591#0"/>
    <trip id="veh139" type="veh_passenger" depart="84.98" departLane="best" departSpeed="max" from="30034310" to="30175679#1"/>
    <trip id="veh140" type="veh_passenger" depart="85.59" departLane="best" from="1131704691" to="-149827885#0"/>
    <trip id="veh141" type="veh_passenger" depart="86.20" departLane="best" from="1120252712#1" to="441448377#1"/>
    <trip id="veh142" type="veh_passenger" depart="86.81" departLane="best" from="345361091#0" to="36971765#5"/>
    <trip id="veh143" type="veh_passenger" depart="87.42" departLane="best" from="-571136723#0" to="-154823210#2"/>
    <trip id="veh144" type="veh_passenger" depart="88.03" departLane="best" from="578574046" to="571741345#1"/>
    <trip id="veh145" type="veh_passenger" depart="88.64" departLane="best" from="506208223#7" to="98778411"/>
    <trip id="veh146" type="veh_passenger" depart="89.25" departLane="best" from="1050505258#4" to="572097646"/>
    <trip id="veh147" type="veh_passenger" depart="89.87" departLane="best" from="1020625348#0" to="375277294#1"/>
    <trip id="veh148" type="veh_passenger" depart="90.48" departLane="best" from="962200672#8" to="320096034#5"/>
    <trip id="veh149" type="veh_passenger" depart="91.09" departLane="best" departSpeed="max" from="393894342" to="99755675#5"/>
    <trip id="veh150" type="veh_passenger" depart="91.70" departLane="best" departSpeed="max" from="32526187" to="1017819556#1"/>
    <trip id="veh151" type="veh_passenger" depart="92.31" departLane="best" from="98764945#2" to="566444492"/>
    <trip id="veh152" type="veh_passenger" depart="92.92" departLane="best" from="109200136#12" to="1020415215"/>
    <trip id="veh153" type="veh_passenger" depart="93.53" departLane="best" departSpeed="max" from="-1053839362" to="-33044757#2"/>
    <trip id="veh154" type="veh_passenger" depart="94.15" departLane="best" from="99215356#9" to="361881294"/>
    <trip id="veh155" type="veh_passenger" depart="94.76" departLane="best" from="579383686#0" to="1018192146#1"/>
    <trip id="veh156" type="veh_passenger" depart="95.37" departLane="best" from="777352588" to="571458582"/>
    <trip id="veh157" type="veh_passenger" depart="95.98" departLane="best" from="910744405#5" to="325416957#1"/>
    <trip id="veh158" type="veh_passenger" depart="96.59" departLane="best" from="98726666#3" to="365878589#3"/>
    <trip id="veh159" type="veh_passenger" depart="97.20" departLane="best" departSpeed="max" from="-44129557#2" to="971948107#0"/>
    <trip id="veh160" type="veh_passenger" depart="97.81" departLane="best" departSpeed="max" from="1022069968" to="98729299#7"/>
    <trip id="veh161" type="veh_passenger" depart="98.42" departLane="best" from="34939687#0" to="258804247#3"/>
    <trip id="veh162" type="veh_passenger" depart="99.04" departLane="best" from="33192926" to="154906272#1"/>
    <trip id="veh163" type="veh_passenger" depart="99.65" departLane="best" from="-32338926#1" to="-160234103#0"/>
    <trip id="veh164" type="veh_passenger" depart="100.26" departLane="best" from="-32852431" to="945300917#7"/>
    <trip id="veh165" type="veh_passenger" depart="100.87" departLane="best" from="1206478948#1" to="-1062125613#0"/>
    <trip id="veh166" type="veh_passenger" depart="101.48" departLane="best" from="174295732#5" to="441448387"/>
    <trip id="veh167" type="veh_passenger" depart="102.09" departLane="best" from="44092493#3" to="98724852#1"/>
    <trip id="veh168" type="veh_passenger" depart="102.70" departLane="best" from="1220292196#1" to="98764945#6"/>
    <trip id="veh169" type="veh_passenger" depart="103.32" departLane="best" from="-1018297050#5" to="-571716337#0"/>
    <trip id="veh170" type="veh_passenger" depart="103.93" departLane="best" from="32526341#2" to="46039484"/>
    <trip id="veh171" type="veh_passenger" depart="104.54" departLane="best" from="273366125#2" to="581270596#1"/>
    <trip id="veh172" type="veh_passenger" depart="105.15" departLane="best" departSpeed="max" from="347312842#0" to="-1015048235"/>
    <trip id="veh173" type="veh_passenger" depart="105.76" departLane="best" from="170301856#0" to="448031958#1"/>
    <trip id="veh174" type="veh_passenger" depart="106.37" departLane="best" from="1018796333#0" to="-666121577"/>
    <trip id="veh175" type="veh_passenger" depart="106.98" departLane="best" departSpeed="max" from="447241287" to="32111259"/>
    <trip id="veh176" type="veh_passenger" depart="107.59" departLane="best" from="99756469#3" to="98763628#0"/>
    <trip id="veh177" type="veh_passenger" depart="108.21" departLane="best" from="1050505266#1" to="-126386677#2"/>
    <trip id="veh178" type="veh_passenger" depart="108.82" departLane="best" departSpeed="max" from="-626437227" to="30658142"/>
    <trip id="veh179" type="veh_passenger" depart="109.43" departLane="best" from="29281074#1" to="30657888#1"/>
    <trip id="veh180" type="veh_passenger" depart="110.04" departLane="best" from="-329335956" to="1053224269"/>
    <trip id="veh181" type="veh_passenger" depart="110.65" departLane="best" from="258804247#2" to="576911142#10"/>
    <trip id="veh182" type="veh_passenger" depart="111.26" departLane="best" departSpeed="max" from="-361881287" to="441448377#0"/>
    <trip id="veh183" type="veh_passenger" depart="111.87" departLane="best" departSpeed="max" from="149827888#0" to="579356027"/>
    <trip id="veh184" type="veh_passenger" depart="112.49" departLane="best" from="569690667#1" to="-70553070"/>
    <trip id="veh185" type="veh_passenger" depart="113.10" departLane="best" from="571396439#5" to="154644285#2"/>
    <trip id="veh186" type="veh_passenger" depart="113.71" departLane="best" from="746246423#0" to="-1054621838#0"/>
    <trip id="veh187" type="veh_passenger" depart="114.32" departLane="best" from="1054138629#0" to="34039441#3"/>
    <trip id="veh188" type="veh_passenger" depart="114.93" departLane="best" departSpeed="max" from="1020691716" to="174295934#2"/>
    <trip id="veh189" type="veh_passenger" depart="115.54" departLane="best" from="367447067#1" to="1017802781"/>
    <trip id="veh190" type="veh_passenger" depart="116.15" departLane="best" from="906465780#1" to="1020925187"/>
    <trip id="veh191" type="veh_passenger" depart="116.76" departLane="best" from="571092074#1" to="98775896#1"/>
    <trip id="veh192" type="veh_passenger" depart="117.38" departLane="best" departSpeed="max" from="-345359910#2" to="912293188"/>
    <trip id="veh193" type="veh_passenger" depart="117.99" departLane="best" departSpeed="max" from="-579609258" to="31960820#2"/>
    <trip id="veh194" type="veh_passenger" depart="118.60" departLane="best" departSpeed="max" from="-361903032" to="98731826#7"/>
    <trip id="veh195" type="veh_passenger" depart="119.21" departLane="best" from="1052009970#1" to="33710792"/>
    <trip id="veh196" type="veh_passenger" depart="119.82" departLane="best" from="98794304#2" to="-565853616#0"/>
    <trip id="veh197" type="veh_passenger" depart="120.43" departLane="best" from="-32338926#3" to="571136709#0"/>
    <trip id="veh198" type="veh_passenger" depart="121.04" departLane="best" from="1018348333#1" to="-1018811005"/>
    <trip id="veh199" type="veh_passenger" depart="121.66" departLane="best" from="1185344975" to="-174389079#3"/>
    <trip id="veh200" type="veh_passenger" depart="122.27" departLane="best" from="98731842#4" to="33236593#3"/>
    <trip id="veh201" type="veh_passenger" depart="122.88" departLane="best" from="-122578392#1" to="576504526#1"/>
    <trip id="veh202" type="veh_passenger" depart="123.49" departLane="best" from="1015818707" to="916344784"/>
    <trip id="veh203" type="veh_passenger" depart="124.10" departLane="best" from="-124008305#1" to="-375278976#1"/>
    <trip id="veh204" type="veh_passenger" depart="124.71" departLane="best" departSpeed="max" from="142506445#0" to="725859276#2"/>
    <trip id="veh205" type="veh_passenger" depart="125.32" departLane="best" from="98731854#5" to="98779433#2"/>
    <trip id="veh206" type="veh_passenger" depart="125.93" departLane="best" from="-772734365#1" to="154906266#1"/>
    <trip id="veh207" type="veh_passenger" depart="126.55" departLane="best" from="98735751#8" to="-32836080"/>
    <trip id="veh208" type="veh_passenger" depart="127.16" departLane="best" from="-142506448#2" to="258832476#5"/>
    <trip id="veh209" type="veh_passenger" depart="127.77" departLane="best" from="790572512#1" to="571096563#5"/>
    <trip id="veh210" type="veh_passenger" depart="128.38" departLane="best" from="261158259#0" to="570334857#0"/>
    <trip id="veh211" type="veh_passenger" depart="128.99" departLane="best" from="30658796#0" to="772734364"/>
    <trip id="veh212" type="veh_passenger" depart="129.60" departLane="best" from="1020584439#3" to="576846228#1"/>
    <trip id="veh213" type="veh_passenger" depart="130.21" departLane="best" from="-553789840#4" to="370080468#0"/>
    <trip id="veh214" type="veh_passenger" depart="130.83" departLane="best" departSpeed="max" from="1053836963" to="1200962124#1"/>
    <trip id="veh215" type="veh_passenger" depart="131.44" departLane="best" from="1019217744#0" to="-123992420#0"/>
    <trip id="veh216" type="veh_passenger" depart="132.05" departLane="best" from="-345126782#0" to="566361286#1"/>
    <trip id="veh217" type="veh_passenger" depart="132.66" departLane="best" from="553789840#6" to="512846130#4"/>
    <trip id="veh218" type="veh_passenger" depart="133.27" departLane="best" departSpeed="max" from="30455096#0" to="370080468#1"/>
    <trip id="veh219" type="veh_passenger" depart="133.88" departLane="best" from="626279607#2" to="99750460#1"/>
    <trip id="veh220" type="veh_passenger" depart="134.49" departLane="best" from="170365035#1" to="576485653"/>
    <trip id="veh221" type="veh_passenger" depart="135.10" departLane="best" from="65099976#5" to="790885562#9"/>
    <trip id="veh222" type="veh_passenger" depart="135.72" departLane="best" from="565866736#0" to="1016153039#1"/>
    <trip id="veh223" type="veh_passenger" depart="136.33" departLane="best" from="65159603#4" to="361903028#3"/>
    <trip id="veh224" type="veh_passenger" depart="136.94" departLane="best" from="572200046#0" to="574245996#1"/>
    <trip id="veh225" type="veh_passenger" depart="137.55" departLane="best" departSpeed="max" from="-772734367" to="-320096034#0"/>
    <trip id="veh226" type="veh_passenger" depart="138.16" departLane="best" from="579426272#2" to="565853616#10"/>
    <trip id="veh227" type="veh_passenger" depart="138.77" departLane="best" departSpeed="max" from="-1020400816" to="-170300079"/>
    <trip id="veh228" type="veh_passenger" depart="139.38" departLane="best" from="28747397#1" to="48938700#1"/>
    <trip id="veh229" type="veh_passenger" depart="140.00" departLane="best" from="-366707868#9" to="571136725#1"/>
    <trip id="veh230" type="veh_passenger" depart="140.61" departLane="best" from="1190262405" to="46594805#1"/>
    <trip id="veh231" type="veh_passenger" depart="141.22" departLane="best" from="1020082964#1" to="1016817681"/>
    <trip id="veh232" type="veh_passenger" depart="141.83" departLane="best" from="-46039612" to="571089117#3"/>
    <trip id="veh233" type="veh_passenger" depart="142.44" departLane="best" from="437433337#1" to="-31056967#0"/>
    <trip id="veh234" type="veh_passenger" depart="143.05" departLane="best" departSpeed="max" from="-355786867#5" to="775618578#1"/>
    <trip id="veh235" type="veh_passenger" depart="143.66" departLane="best" from="1018862642#1" to="98731832#2"/>
    <trip id="veh236" type="veh_passenger" depart="144.28" departLane="best" from="99215315#1" to="654371288#2"/>
    <trip id="veh237" type="veh_passenger" depart="144.89" departLane="best" from="-44007720#2" to="-346965141#0"/>
    <trip id="veh238" type="veh_passenger" depart="145.50" departLane="best" from="725737726#3" to="29586652#1"/>
    <trip id="veh239" type="veh_passenger" depart="146.11" departLane="best" departSpeed="max" from="-122905458#5" to="-346972120#0"/>
    <trip id="veh240" type="veh_passenger" depart="146.72" departLane="best" departSpeed="max" from="1020382802#0" to="1018804300#0"/>
    <trip id="veh241" type="veh_passenger" depart="147.33" departLane="best" departSpeed="max" from="-1306245962" to="571795277#2"/>
    <trip id="veh242" type="veh_passenger" depart="147.94" departLane="best" from="-174389083#6" to="1021180591#1"/>
    <trip id="veh243" type="veh_passenger" depart="148.55" departLane="best" from="571136723#1" to="576528036#2"/>
    <trip id="veh244" type="veh_passenger" depart="149.17" departLane="best" from="621092883#2" to="1017732342#1"/>
    <trip id="veh245" type="veh_passenger" depart="149.78" departLane="best" from="-572200043#0" to="437425582#0"/>
    <trip id="veh246" type="veh_passenger" depart="150.39" departLane="best" from="64951356#2" to="572200051#0"/>
    <trip id="veh247" type="veh_passenger" depart="151.00" departLane="best" from="572178363" to="28747397#1"/>
    <trip id="veh248" type="veh_passenger" depart="151.61" departLane="best" from="571757657" to="971954020#2"/>
    <trip id="veh249" type="veh_passenger" depart="152.22" departLane="best" departSpeed="max" from="404222302#0" to="-554514695#0"/>
    <trip id="veh250" type="veh_passenger" depart="152.83" departLane="best" departSpeed="max" from="70553071" to="-142506445#2"/>
    <trip id="veh251" type="veh_passenger" depart="153.45" departLane="best" departSpeed="max" from="-1018207896" to="1052009970#0"/>