<?xml version="1.0" encoding="UTF-8"?>

<!-- generated on 2025-11-26T10:35:31.514534-05:00 by Eclipse SUMO netedit 1.25.0
-->

<routes xmlns:xsi="http://www.w3.org/2001/XMLSchema-instance" xsi:noNamespaceSchemaLocation="http://sumo.dlr.de/xsd/routes_file.xsd">
    <!-- VTypes -->
    <vType id="motorcycle_motorcycle" vClass="motorcycle"/>
    <!-- Vehicles, persons and containers (sorted by depart) -->
    <trip id="motorcycle0" type="motorcycle_motorcycle" depart="0.00" departLane="best" from="804366829#0" to="31057193#0"/>
    <trip id="motorcycle1" type="motorcycle_motorcycle" depart="0.61" departLane="best" departSpeed="max" from="-31056914#2" to="70551059#3"/>
    <trip id="motorcycle2" type="motorcycle_motorcycle" depart="1.22" departLane="best" from="347315990#1" to="572200152#3"/>
    <trip id="motorcycle3" type="motorcycle_motorcycle" depart="1.83" departLane="best" from="-322285650#0" to="322285652"/>
    <trip id="motorcycle4" type="motorcycle_motorcycle" depart="2.44" departLane="best" from="566376527#0" to="99761761#4"/>
    <trip id="motorcycle5" type="motorcycle_motorcycle" depart="3.06" departLane="best" from="674586585#1" to="1057061734"/>
    <trip id="motorcycle6" type="motorcycle_motorcycle" depart="3.67" departLane="best" from="45878041#5" to="-30607773#3"/>
    <trip id="motorcycle7" type="motorcycle_motorcycle" depart="4.28" departLane="best" from="621152810#2" to="46039479"/>
    <trip id="motorcycle8" type="motorcycle_motorcycle" depart="4.89" departLane="best" departSpeed="max" from="32061364#0" to="35083878"/>
    <trip id="motorcycle9" type="motorcycle_motorcycle" depart="5.50" departLane="best" from="-64950287" to="-345337061#0"/>
    <trip id="motorcycle10" type="motorcycle_motorcycle" depart="6.11" departLane="best" from="1016085444#2" to="149827910#4"/>
    <trip id="motorcycle11" type="motorcycle_motorcycle" depart="6.72" departLane="best" departSpeed="max" from="-65063639#1" to="-345363501#7"/>
    <trip id="motorcycle12" type="motorcycle_motorcycle" depart="7.33" departLane="best" from="576911142#8" to="1020328331"/>
    <trip id="motorcycle13" type="motorcycle_motorcycle" depart="7.95" departLane="best" departSpeed="max" from="1019198948" to="572133292#2"/>
    <trip id="motorcycle14" type="motorcycle_motorcycle" depart="8.56" departLane="best" from="-388207419" to="-65066282#0"/>
    <trip id="motorcycle15" type="motorcycle_motorcycle" depart="9.17" departLane="best" from="-75817456#7" to="380118437#4"/>
    <trip id="motorcycle16" type="motorcycle_motorcycle" depart="9.78" departLane="best" from="1018542956#1" to="-184937068#6"/>
    <trip id="motorcycle17" type="motorcycle_motorcycle" depart="10.39" departLane="best" from="-441790811" to="70551025#1"/>
    <trip id="motorcycle18" type="motorcycle_motorcycle" depart="11.00" departLane="best" from="346380251#3" to="-64948309"/>
    <trip id="motorcycle19" type="motorcycle_motorcycle" depart="11.61" departLane="best" from="-173395769#6" to="772734364"/>
    <trip id="motorcycle20" type="motorcycle_motorcycle" depart="12.22" departLane="best" from="571475508" to="-1018192143"/>
    <trip id="motorcycle21" type="motorcycle_motorcycle" depart="12.84" departLane="best" departSpeed="max" from="-945311538#1" to="-320096059#0"/>
    <trip id="motorcycle22" type="motorcycle_motorcycle" depart="13.45" departLane="best" from="-154823209#2" to="124003366#2"/>
    <trip id="motorcycle23" type="motorcycle_motorcycle" depart="14.06" departLane="best" from="-31016343#14" to="1008228759"/>
    <trip id="motorcycle24" type="motorcycle_motorcycle" depart="14.67" departLane="best" departSpeed="max" from="-154824161#2" to="47867727"/>
    <trip id="motorcycle25" type="motorcycle_motorcycle" depart="15.28" departLane="best" departSpeed="max" from="64948415" to="441448382#1"/>
    <trip id="motorcycle26" type="motorcycle_motorcycle" depart="15.89" departLane="best" from="-98775881#0" to="261608391#1"/>
    <trip id="motorcycle27" type="motorcycle_motorcycle" depart="16.50" departLane="best" from="-99776159#5" to="1050506351#3"/>
    <trip id="motorcycle28" type="motorcycle_motorcycle" depart="17.11" departLane="best" departSpeed="max" from="-1053292883" to="99761769"/>
    <trip id="motorcycle29" type="motorcycle_motorcycle" depart="17.73" departLane="best" departSpeed="max" from="44092460#0" to="571741342#2"/>
    <trip id="motorcycle30" type="motorcycle_motorcycle" depart="18.34" departLane="best" from="578596455#0" to="1020016918-AddedOffRampEdge"/>
    <trip id="motorcycle31" type="motorcycle_motorcycle" depart="18.95" departLane="best" from="1153073310#2" to="33045057#1"/>
    <trip id="motorcycle32" type="motorcycle_motorcycle" depart="19.56" departLane="best" from="345363501#0" to="-1378349158"/>
    <trip id="motorcycle33" type="motorcycle_motorcycle" depart="20.17" departLane="best" from="-274849298#0" to="-945311529"/>
    <trip id="motorcycle34" type="motorcycle_motorcycle" depart="20.78" departLane="best" from="-571387674" to="772734364"/>
    <trip id="motorcycle35" type="motorcycle_motorcycle" depart="21.39" departLane="best" from="934500080#2" to="43965503#1"/>
    <trip id="motorcycle36" type="motorcycle_motorcycle" depart="22.00" departLane="best" departSpeed="max" from="347310664" to="316136514#6"/>
    <trip id="motorcycle37" type="motorcycle_motorcycle" depart="22.62" departLane="best" from="-273366128#1" to="626981628"/>
    <trip id="motorcycle38" type="motorcycle_motorcycle" depart="23.23" departLane="best" from="579003111#1" to="44533153#1"/>
    <trip id="motorcycle39" type="motorcycle_motorcycle" depart="23.84" departLane="best" departSpeed="max" from="-447230476" to="-1054997096"/>
    <trip id="motorcycle40" type="motorcycle_motorcycle" depart="24.45" departLane="best" departSpeed="max" from="1008228756" to="-770876604"/>
    <trip id="motorcycle41" type="motorcycle_motorcycle" depart="25.06" departLane="best" from="98732789#2" to="-69481446#0"/>
    <trip id="motorcycle42" type="motorcycle_motorcycle" depart="25.67" departLane="best" from="-155344772" to="1202993160"/>
    <trip id="motorcycle43" type="motorcycle_motorcycle" depart="26.28" departLane="best" from="33234029#3" to="571096592"/>
    <trip id="motorcycle44" type="motorcycle_motorcycle" depart="26.89" departLane="best" from="572092443" to="1020925187"/>
    <trip id="motorcycle45" type="motorcycle_motorcycle" depart="27.51" departLane="best" from="33044939#3" to="98778639#3"/>
    <trip id="motorcycle46" type="motorcycle_motorcycle" depart="28.12" departLane="best" from="33044796#1" to="30175532#0"/>
    <trip id="motorcycle47" type="motorcycle_motorcycle" depart="28.73" departLane="best" from="424408914#0" to="1016031787"/>
    <trip id="motorcycle48" type="motorcycle_motorcycle" depart="29.34" departLane="best" from="1016050536#2" to="99868969#2"/>
    <trip id="motorcycle49" type="motorcycle_motorcycle" depart="29.95" departLane="best" from="31806208#1" to="-365916918#0"/>
    <trip id="motorcycle50" type="motorcycle_motorcycle" depart="30.56" departLane="best" from="-80397151#0" to="-32339041"/>
    <trip id="motorcycle51" type="motorcycle_motorcycle" depart="31.17" departLane="best" from="64950074#2" to="1018192146#1"/>
    <trip id="motorcycle52" type="motorcycle_motorcycle" depart="31.78" departLane="best" from="579483178#0" to="-1018811005"/>
    <trip id="motorcycle53" type="motorcycle_motorcycle" depart="32.40" departLane="best" departSpeed="max" from="571444024#0" to="-174297105#1"/>
    <trip id="motorcycle54" type="motorcycle_motorcycle" depart="33.01" departLane="best" from="31965650#1" to="571757648"/>
    <trip id="motorcycle55" type="motorcycle_motorcycle" depart="33.62" departLane="best" from="30614069#1-AddedOffRampEdge" to="28746588#4"/>
    <trip id="motorcycle56" type="motorcycle_motorcycle" depart="34.23" departLane="best" from="838829262#4" to="1020614135#1"/>
    <trip id="motorcycle57" type="motorcycle_motorcycle" depart="34.84" departLane="best" from="-174389071#0" to="423206796#1"/>
    <trip id="motorcycle58" type="motorcycle_motorcycle" depart="35.45" departLane="best" from="571741344" to="361881283#4"/>
    <trip id="motorcycle59" type="motorcycle_motorcycle" depart="36.06" departLane="best" from="33714491#1" to="-99761776"/>
    <trip id="motorcycle60" type="motorcycle_motorcycle" depart="36.67" departLane="best" from="566361292" to="-1378349158"/>
    <trip id="motorcycle61" type="motorcycle_motorcycle" depart="37.29" departLane="best" from="-99868956#2" to="1056606788"/>
    <trip id="motorcycle62" type="motorcycle_motorcycle" depart="37.90" departLane="best" from="570120544#1" to="1016866940"/>
    <trip id="motorcycle63" type="motorcycle_motorcycle" depart="38.51" departLane="best" from="99215315#2" to="578596456#0"/>
    <trip id="motorcycle64" type="motorcycle_motorcycle" depart="39.12" departLane="best" departSpeed="max" from="-98765710" to="574246028"/>
    <trip id="motorcycle65" type="motorcycle_motorcycle" depart="39.73" departLane="best" from="-626949832" to="1069298016#1"/>
    <trip id="motorcycle66" type="motorcycle_motorcycle" depart="40.34" departLane="best" from="361743369#16" to="-370159725"/>
    <trip id="motorcycle67" type="motorcycle_motorcycle" depart="40.95" departLane="best" from="570334862#1" to="29592273"/>
    <trip id="motorcycle68" type="motorcycle_motorcycle" depart="41.56" departLane="best" from="1015862848#1" to="30613978"/>
    <trip id="motorcycle69" type="motorcycle_motorcycle" depart="42.17" departLane="best" from="98724858#9" to="98726741#3"/>
    <trip id="motorcycle70" type="motorcycle_motorcycle" depart="42.79" departLane="best" from="-230679147#0" to="75366785"/>
    <trip id="motorcycle71" type="motorcycle_motorcycle" depart="43.40" departLane="best" from="347355502#5" to="437429502"/>
    <trip id="motorcycle72" type="motorcycle_motorcycle" depart="44.01" departLane="best" from="230624883" to="33232693#9"/>
    <trip id="motorcycle73" type="motorcycle_motorcycle" depart="44.62" departLane="best" from="-370196257#0" to="-571716337#13"/>
    <trip id="motorcycle74" type="motorcycle_motorcycle" depart="45.23" departLane="best" from="1019226270#0" to="98731196#0"/>
    <trip id="motorcycle75" type="motorcycle_motorcycle" depart="45.84" departLane="best" from="30831758#0" to="1050505266#3"/>
    <trip id="motorcycle76" type="motorcycle_motorcycle" depart="46.45" departLane="best" from="392477670#0" to="-571809761#1"/>
    <trip id="motorcycle77" type="motorcycle_motorcycle" depart="47.06" departLane="best" from="32121077" to="173151793#3"/>
    <trip id="motorcycle78" type="motorcycle_motorcycle" depart="47.68" departLane="best" from="571777654#2" to="790572512#2"/>
    <trip id="motorcycle79" type="motorcycle_motorcycle" depart="48.29" departLane="best" from="1154371246#1" to="572113129#1"/>
    <trip id="motorcycle80" type="motorcycle_motorcycle" depart="48.90" departLane="best" from="571855704#2" to="-345327742#1"/>
    <trip id="motorcycle81" type="motorcycle_motorcycle" depart="49.51" departLane="best" departSpeed="max" from="1052671388" to="361919273#1"/>
    <trip id="motorcycle82" type="motorcycle_motorcycle" depart="50.12" departLane="best" departSpeed="max" from="-346380243" to="1016152369#1"/>
    <trip id="motorcycle83" type="motorcycle_motorcycle" depart="50.73" departLane="best" from="1018373169#1" to="1051754319"/>
    <trip id="motorcycle84" type="motorcycle_motorcycle" depart="51.34" departLane="best" from="-32836256#0" to="365579748#2"/>
    <trip id="motorcycle85" type="motorcycle_motorcycle" depart="51.95" departLane="best" from="1417014857#7" to="-565853615#5"/>
    <trip id="motorcycle86" type="motorcycle_motorcycle" depart="52.57" departLane="best" from="-99868783" to="572228257"/>
    <trip id="motorcycle87" type="motorcycle_motorcycle" depart="53.18" departLane="best" from="553789841#3" to="617849839"/>
    <trip id="motorcycle88" type="motorcycle_motorcycle" depart="53.79" departLane="best" from="1383679907" to="440269585#1"/>
    <trip id="motorcycle89" type="motorcycle_motorcycle" depart="54.40" departLane="best" departSpeed="max" from="1016471749" to="320096034#5"/>
    <trip id="motorcycle90" type="motorcycle_motorcycle" depart="55.01" departLane="best" from="-669793858" to="93329480#6"/>
    <trip id="motorcycle91" type="motorcycle_motorcycle" depart="55.62" departLane="best" from="664956645#3" to="345350905"/>
    <trip id="motorcycle92" type="motorcycle_motorcycle" depart="56.23" departLane="best" from="32852265#10" to="908641433"/>
    <trip id="motorcycle93" type="motorcycle_motorcycle" depart="56.84" departLane="best" from="-345363501#1" to="1018192146#1"/>
    <trip id="motorcycle94" type="motorcycle_motorcycle" depart="57.46" departLane="best" departSpeed="max" from="44092496#0" to="44092477#8"/>
    <trip id="motorcycle95" type="motorcycle_motorcycle" depart="58.07" departLane="best" from="-553789840#6" to="-64948819#1"/>
    <trip id="motorcycle96" type="motorcycle_motorcycle" depart="58.68" departLane="best" departSpeed="max" from="-404222300" to="-123992423#2"/>
    <trip id="motorcycle97" type="motorcycle_motorcycle" depart="59.29" departLane="best" from="149827888#2" to="-571809760#2"/>
    <trip id="motorcycle98" type="motorcycle_motorcycle" depart="59.90" departLane="best" from="553789841#5" to="-571475503#0"/>
    <trip id="motorcycle99" type="motorcycle_motorcycle" depart="60.51" departLane="best" from="-580630933" to="-370192626#0"/>
    <trip id="motorcycle100" type="motorcycle_motorcycle" depart="61.12" departLane="best" from="-99868784#1" to="571089117#2"/>
    <trip id="motorcycle101" type="motorcycle_motorcycle" depart="61.73" departLane="best" from="99756601#5" to="571096580#1"/>
    <trip id="motorcycle102" type="motorcycle_motorcycle" depart="62.35" departLane="best" from="1020925192#1" to="-375276770#3"/>
    <trip id="motorcycle103" type="motorcycle_motorcycle" depart="62.96" departLane="best" from="448231109#2" to="571136714#2"/>
    <trip id="motorcycle104" type="motorcycle_motorcycle" depart="63.57" departLane="best" departSpeed="max" from="65063590" to="986771435#0"/>
    <trip id="motorcycle105" type="motorcycle_motorcycle" depart="64.18" departLane="best" departSpeed="max" from="-174295934#2" to="174389083#3"/>
    <trip id="motorcycle106" type="motorcycle_motorcycle" depart="64.79" departLane="best" departSpeed="max" from="-1014563871" to="154823210#1"/>
    <trip id="motorcycle107" type="motorcycle_motorcycle" depart="65.40" departLane="best" from="440860106#2" to="316136514#0"/>
    <trip id="motorcycle108" type="motorcycle_motorcycle" depart="66.01" departLane="best" from="1131614514" to="-159049509"/>
    <trip id="motorcycle109" type="motorcycle_motorcycle" depart="66.62" departLane="best" from="32756842#4" to="98731841#1"/>
    <trip id="motorcycle110" type="motorcycle_motorcycle" depart="67.24" departLane="best" from="174295721#0" to="440873397#2"/>
    <trip id="motorcycle111" type="motorcycle_motorcycle" depart="67.85" departLane="best" from="98743339#0" to="-98781828#0"/>
    <trip id="motorcycle112" type="motorcycle_motorcycle" depart="68.46" departLane="best" departSpeed="max" from="-346382781" to="-406070112"/>
    <trip id="motorcycle113" type="motorcycle_motorcycle" depart="69.07" departLane="best" from="-553789839#1" to="322285649"/>
    <trip id="motorcycle114" type="motorcycle_motorcycle" depart="69.68" departLane="best" from="98736116#0" to="-70551091#0"/>
    <trip id="motorcycle115" type="motorcycle_motorcycle" depart="70.29" departLane="best" from="122905442#0" to="-1074109698#0"/>
    <trip id="motorcycle116" type="motorcycle_motorcycle" depart="70.90" departLane="best" from="-361903043" to="174389079#0"/>
    <trip id="motorcycle117" type="motorcycle_motorcycle" depart="71.51" departLane="best" from="571799058#4" to="1016825001"/>
    <trip id="motorcycle118" type="motorcycle_motorcycle" depart="72.13" departLane="best" from="99868971#1" to="-33044939#3"/>
    <trip id="motorcycle119" type="motorcycle_motorcycle" depart="72.74" departLane="best" from="98735722#9" to="65159599#1"/>
    <trip id="motorcycle120" type="motorcycle_motorcycle" depart="73.35" departLane="best" departSpeed="max" from="-174295934#2" to="-370196253#0"/>
    <trip id="motorcycle121" type="motorcycle_motorcycle" depart="73.96" departLane="best" from="99868733#7" to="-345322384#0"/>
    <trip id="motorcycle122" type="motorcycle_motorcycle" depart="74.57" departLane="best" from="46752298#0" to="365878604#5"/>
    <trip id="motorcycle123" type="motorcycle_motorcycle" depart="75.18" departLane="best" from="-347311669#1" to="-1018541287#0"/>
    <trip id="motorcycle124" type="motorcycle_motorcycle" depart="75.79" departLane="best" from="375276770#2" to="566118501#5"/>
    <trip id="motorcycle125" type="motorcycle_motorcycle" depart="76.40" departLane="best" from="32048854#1" to="-32754925"/>
    <trip id="motorcycle126" type="motorcycle_motorcycle" depart="77.02" departLane="best" departSpeed="max" from="-122905458#5" to="654742597#4"/>
    <trip id="motorcycle127" type="motorcycle_motorcycle" depart="77.63" departLane="best" departSpeed="max" from="-65063609" to="346380243"/>
    <trip id="motorcycle128" type="motorcycle_motorcycle" depart="78.24" departLane="best" from="-234374976" to="-99868822#2"/>
    <trip id="motorcycle129" type="motorcycle_motorcycle" depart="78.85" departLane="best" from="32048585" to="1020618992#1"/>
    <trip id="motorcycle130" type="motorcycle_motorcycle" depart="79.46" departLane="best" departSpeed="max" from="1378349158" to="65063639#1"/>
    <trip id="motorcycle131" type="motorcycle_motorcycle" depart="80.07" departLane="best" from="98763640#1" to="33754885#0"/>
    <trip id="motorcycle132" type="motorcycle_motorcycle" depart="80.68" departLane="best" from="-98794471#2" to="-33707788#0"/>
    <trip id="motorcycle133" type="motorcycle_motorcycle" depart="81.29" departLane="best" from="571089117#1" to="1008228759"/>
    <trip id="motorcycle134" type="motorcycle_motorcycle" depart="81.90" departLane="best" from="-347315990#1" to="-345350906#0"/>
    <trip id="motorcycle135" type="motorcycle_motorcycle" depart="82.52" departLane="best" departSpeed="max" from="1054984107" to="-1018192143"/>
    <trip id="motorcycle136" type="motorcycle_motorcycle" depart="83.13" departLane="best" from="-345361090#1" to="64950917#2"/>
    <trip id="motorcycle137" type="motorcycle_motorcycle" depart="83.74" departLane="best" from="1229646277#0" to="93329434#3"/>
    <trip id="motorcycle138" type="motorcycle_motorcycle" depart="84.35" departLane="best" departSpeed="max" from="-32338996#3" to="32894556"/>
    <trip id="motorcycle139" type="motorcycle_motorcycle" depart="84.96" departLane="best" from="-98724813#1" to="30658828#2"/>
    <trip id="motorcycle140" type="motorcycle_motorcycle" depart="85.57" departLane="best" from="364136129#10" to="962734211#0"/>
    <trip id="motorcycle141" type="motorcycle_motorcycle" depart="86.18" departLane="best" from="654386427#0" to="-99761776"/>
    <trip id="motorcycle142" type="motorcycle_motorcycle" depart="86.79" departLane="best" from="297287013#1" to="571763784#0"/>
    <trip id="motorcycle143" type="motorcycle_motorcycle" depart="87.41" departLane="best" from="-173151796#5" to="-1019217743#5"/>
    <trip id="motorcycle144" type="motorcycle_motorcycle" depart="88.02" departLane="best" from="-565853608#8" to="-370192627#1"/>
    <trip id="motorcycle145" type="motorcycle_motorcycle" depart="88.63" departLane="best" from="98726666#2" to="170365031"/>
    <trip id="motorcycle146" type="motorcycle_motorcycle" depart="89.24" departLane="best" from="571475544" to="346382781"/>
    <trip id="motorcycle147" type="motorcycle_motorcycle" depart="89.85" departLane="best" from="29578028#0" to="98742347#0"/>
    <trip id="motorcycle148" type="motorcycle_motorcycle" depart="90.46" departLane="best" from="571716340" to="-173395769#4"/>
    <trip id="motorcycle149" type="motorcycle_motorcycle" depart="91.07" departLane="best" from="571777655#2" to="367596774#0"/>
    <trip id="motorcycle150" type="motorcycle_motorcycle" depart="91.68" departLane="best" from="64949863#2" to="-785228945"/>
    <trip id="motorcycle151" type="motorcycle_motorcycle" depart="92.30" departLane="best" from="1018650864#3" to="1020366396"/>
    <trip id="motorcycle152" type="motorcycle_motorcycle" depart="92.91" departLane="best" from="32237376#5" to="1016159705"/>
    <trip id="motorcycle153" type="motorcycle_motorcycle" depart="93.52" departLane="best" from="36828865#5" to="361903052"/>
    <trip id="motorcycle154" type="motorcycle_motorcycle" depart="94.13" departLane="best" from="-70551027#0" to="1053224269"/>
    <trip id="motorcycle155" type="motorcycle_motorcycle" depart="94.74" departLane="best" from="-565924621#0" to="440653661"/>
    <trip id="motorcycle156" type="motorcycle_motorcycle" depart="95.35" departLane="best" from="370196241#1" to="174295932#3"/>
    <trip id="motorcycle157" type="motorcycle_motorcycle" depart="95.96" departLane="best" departSpeed="max" from="-571855764" to="32237672#2"/>
    <trip id="motorcycle158" type="motorcycle_motorcycle" depart="96.57" departLane="best" departSpeed="max" from="329795109" to="570120544#1"/>
    <trip id="motorcycle159" type="motorcycle_motorcycle" depart="97.19" departLane="best" departSpeed="max" from="70551091#0" to="98776000#2"/>
    <trip id="motorcycle160" type="motorcycle_motorcycle" depart="97.80" departLane="best" from="-807266197#3" to="113921059#3"/>
    <trip id="motorcycle161" type="motorcycle_motorcycle" depart="98.41" departLane="best" from="621092883#8" to="1019226268#0"/>
    <trip id="motorcycle162" type="motorcycle_motorcycle" depart="99.02" departLane="best" from="-571475600#0" to="345332203"/>
    <trip id="motorcycle163" type="motorcycle_motorcycle" depart="99.63" departLane="best" departSpeed="max" from="154157689#0" to="361881283#4"/>
    <trip id="motorcycle164" type="motorcycle_motorcycle" depart="100.24" departLane="best" from="1017732342#3" to="173106706#1"/>
    <trip id="motorcycle165" type="motorcycle_motorcycle" depart="100.85" departLane="best" from="98778639#3" to="465256625"/>
    <trip id="motorcycle166" type="motorcycle_motorcycle" depart="101.46" departLane="best" departSpeed="max" from="-345358572#5" to="-70553074"/>
    <trip id="motorcycle167" type="motorcycle_motorcycle" depart="102.08" departLane="best" from="807266197#2" to="-370196236#3"/>
    <trip id="motorcycle168" type="motorcycle_motorcycle" depart="102.69" departLane="best" from="-69563982#1" to="32289416#4"/>
    <trip id="motorcycle169" type="motorcycle_motorcycle" depart="103.30" departLane="best" from="-30431170" to="-98758338#0"/>
    <trip id="motorcycle170" type="motorcycle_motorcycle" depart="103.91" departLane="best" from="-1017991537" to="-565853615#2"/>
    <trip id="motorcycle171" type="motorcycle_motorcycle" depart="104.52" departLane="best" from="1069271949" to="32525561#1"/>
    <trip id="motorcycle172" type="motorcycle_motorcycle" depart="105.13" departLane="best" from="-64951356#2" to="345348385#1"/>
    <trip id="motorcycle173" type="motorcycle_motorcycle" depart="105.74" departLane="best" departSpeed="max" from="-945311538#1" to="-70553068#0"/>
    <trip id="motorcycle174" type="motorcycle_motorcycle" depart="106.35" departLane="best" from="-174295731#0" to="-174295711"/>
    <trip id="motorcycle175" type="motorcycle_motorcycle" depart="106.97" departLane="best" from="-654386428" to="98742421#0"/>
    <trip id="motorcycle176" type="motorcycle_motorcycle" depart="107.58" departLane="best" from="32339036#0" to="-99868986#0"/>
    <trip id="motorcycle177" type="motorcycle_motorcycle" depart="108.19" departLane="best" from="31965650#8" to="1020122003"/>
    <trip id="motorcycle178" type="motorcycle_motorcycle" depart="108.80" departLane="best" from="346380251#9" to="447230450"/>
    <trip id="motorcycle179" type="motorcycle_motorcycle" depart="109.41" departLane="best" from="512846130#13" to="-440873396"/>
    <trip id="motorcycle180" type="motorcycle_motorcycle" depart="110.02" departLane="best" from="33187378" to="98758572#1"/>
    <trip id="motorcycle181" type="motorcycle_motorcycle" depart="110.63" departLane="best" departSpeed="max" from="32836236#0" to="569460693#4"/>
    <trip id="motorcycle182" type="motorcycle_motorcycle" depart="111.24" departLane="best" from="173151562#0" to="65066568#3"/>
    <trip id="motorcycle183" type="motorcycle_motorcycle" depart="111.86" departLane="best" from="36971701#1" to="1020079235#1"/>
    <trip id="motorcycle184" type="motorcycle_motorcycle" depart="112.47" departLane="best" from="184937068#6" to="-184937068#3"/>
    <trip id="motorcycle185" type="motorcycle_motorcycle" depart="113.08" departLane="best" departSpeed="max" from="-404222296#1" to="31879441#4"/>
    <trip id="motorcycle186" type="motorcycle_motorcycle" depart="113.69" departLane="best" from="316136514#1" to="-324584592"/>
    <trip id="motorcycle187" type="motorcycle_motorcycle" depart="114.30" departLane="best" from="170365035#1" to="-565882110#2"/>
    <trip id="motorcycle188" type="motorcycle_motorcycle" depart="114.91" departLane="best" from="-572092433#0" to="370159726"/>
    <trip id="motorcycle189" type="motorcycle_motorcycle" depart="115.52" departLane="best" from="-65066279#2" to="-322285652"/>
    <trip id="motorcycle190" type="motorcycle_motorcycle" depart="116.13" departLane="best" departSpeed="max" from="-65066463#1" to="64951585#5"/>
    <trip id="motorcycle191" type="motorcycle_motorcycle" depart="116.75" departLane="best" from="160069306#4" to="32121076#0"/>
    <trip id="motorcycle192" type="motorcycle_motorcycle" depart="117.36" departLane="best" from="-64948186#3" to="-1053836963"/>
    <trip id="motorcycle193" type="motorcycle_motorcycle" depart="117.97" departLane="best" departSpeed="max" from="-404222296#1" to="154823204"/>
    <trip id="motorcycle194" type="motorcycle_motorcycle" depart="118.58" departLane="best" from="1058860766#2" to="35083989#13"/>
    <trip id="motorcycle195" type="motorcycle_motorcycle" depart="119.19" departLane="best" from="98798707#0" to="367447099#0"/>
    <trip id="motorcycle196" type="motorcycle_motorcycle" depart="119.80" departLane="best" from="346383684#2" to="-1016471761#1"/>
    <trip id="motorcycle197" type="motorcycle_motorcycle" depart="120.41" departLane="best" departSpeed="max" from="-807266199" to="361903021#3"/>
    <trip id="motorcycle198" type="motorcycle_motorcycle" depart="121.02" departLane="best" departSpeed="max" from="1050506350" to="-1050506350"/>
    <trip id="motorcycle199" type="motorcycle_motorcycle" depart="121.63" departLane="best" from="986771435#1" to="-280582177#1"/>
    <trip id="motorcycle200" type="motorcycle_motorcycle" depart="122.25" departLane="best" departSpeed="max" from="-270675009#1" to="391928046#2"/>
    <trip id="motorcycle201" type="motorcycle_motorcycle" depart="122.86" departLane="best" from="1331435087#0" to="1057589251#1"/>
    <trip id="motorcycle202" type="motorcycle_motorcycle" depart="123.47" departLane="best" from="309500134#1" to="-626949832"/>
    <trip id="motorcycle203" type="motorcycle_motorcycle" depart="124.08" departLane="best" departSpeed="max" from="1016471749" to="65066283#1"/>
    <trip id="motorcycle204" type="motorcycle_motorcycle" depart="124.69" departLane="best" departSpeed="max" from="98765710" to="32060627#0"/>
    <trip id="motorcycle205" type="motorcycle_motorcycle" depart="125.30" departLane="best" from="98733823#0" to="906498190#0-AddedOnRampEdge"/>
    <trip id="motorcycle206" type="motorcycle_motorcycle" depart="125.91" departLane="best" from="99227282#1" to="932930002#0"/>
    <trip id="motorcycle207" type="motorcycle_motorcycle" depart="126.52" departLane="best" from="934509625#4" to="571813494#5"/>
    <trip id="motorcycle208" type="motorcycle_motorcycle" depart="127.14" departLane="best" departSpeed="max" from="1018192147" to="1018862641"/>
    <trip id="motorcycle209" type="motorcycle_motorcycle" depart="127.75" departLane="best" departSpeed="max" from="-912361434" to="1154378072"/>
    <trip id="motorcycle210" type="motorcycle_motorcycle" depart="128.36" departLane="best" departSpeed="max" from="-99761761#4" to="626437228#1"/>
    <trip id="motorcycle211" type="motorcycle_motorcycle" depart="128.97" departLane="best" departSpeed="max" from="500738645" to="69481472"/>
    <trip id="motorcycle212" type="motorcycle_motorcycle" depart="129.58" departLane="best" from="-98729125#3" to="-44092459#0"/>
    <trip id="motorcycle213" type="motorcycle_motorcycle" depart="130.19" departLane="best" from="571136702#3" to="-346377545#0"/>
    <trip id="motorcycle214" type="motorcycle_motorcycle" depart="130.80" departLane="best" from="33178312#0" to="806075305#1"/>
    <trip id="motorcycle215" type="motorcycle_motorcycle" depart="131.41" departLane="best" from="-65806168#1" to="1020625348#1"/>
    <trip id="motorcycle216" type="motorcycle_motorcycle" depart="132.03" departLane="best" from="32062073#3" to="465256625"/>
    <trip id="motorcycle217" type="motorcycle_motorcycle" depart="132.64" departLane="best" from="-725850299#1" to="238268430"/>
    <trip id="motorcycle218" type="motorcycle_motorcycle" depart="133.25" departLane="best" from="174389081" to="325713404"/>
    <trip id="motorcycle219" type="motorcycle_motorcycle" depart="133.86" departLane="best" departSpeed="max" from="-1056606788" to="1020085962#5"/>
    <trip id="motorcycle220" type="motorcycle_motorcycle" depart="134.47" departLane="best" from="-174297105#0" to="-174295709#0"/>
    <trip id="motorcycle221" type="motorcycle_motorcycle" depart="135.08" departLane="best" from="867518077#0" to="99869152#1"/>
    <trip id="motorcycle222" type="motorcycle_motorcycle" depart="135.69" departLane="best" from="174295716#2" to="-914671748#0"/>
    <trip id="motorcycle223" type="motorcycle_motorcycle" depart="136.30" departLane="best" from="1130695502#1" to="346603781"/>