<?xml version="1.0" encoding="UTF-8"?>

<!-- generated on 2025-11-26T10:35:31.474528-05:00 by Eclipse SUMO netedit 1.25.0
-->

<routes xmlns:xsi="http://www.w3.org/2001/XMLSchema-instance" xsi:noNamespaceSchemaLocation="http://sumo.dlr.de/xsd/routes_file.xsd">
    <!-- VTypes -->
    <vType id="bus_bus" vClass="bus"/>
    <!-- Vehicles, persons and containers (sorted by depart) -->
    <trip id="bus0" type="bus_bus" depart="0.00" departLane="best" from="362477571#0" to="-1052646360#1"/>
    <trip id="bus1" type="bus_bus" depart="1.21" departLane="best" from="-69563981#2" to="-571716341#0"/>
    <trip id="bus2" type="bus_bus" depart="2.42" departLane="best" departSpeed="max" from="569450175" to="406070106#1"/>
    <trip id="bus3" type="bus_bus" depart="3.63" departLane="best" from="1185344977#1" to="-1054997096"/>
    <trip id="bus4" type="bus_bus" depart="4.84" departLane="best" from="-565924621#1" to="30614094#2"/>
    <trip id="bus5" type="bus_bus" depart="6.05" departLane="best" from="-1041165060#1" to="-48835740#0"/>
    <trip id="bus6" type="bus_bus" depart="7.25" departLane="best" from="367447066" to="32526401#0"/>
    <trip id="bus7" type="bus_bus" depart="8.46" departLane="best" from="-566376531" to="345359696"/>
    <trip id="bus8" type="bus_bus" depart="9.67" departLane="best" from="578914903#1" to="-1016866939#1"/>
    <trip id="bus9" type="bus_bus" depart="10.88" departLane="best" from="578596455#0" to="442859517"/>
    <trip id="bus10" type="bus_bus" depart="12.09" departLane="best" from="1016153039#1" to="-361903024#11"/>
    <trip id="bus11" type="bus_bus" depart="13.30" departLane="best" from="98742486#1" to="1018280194"/>
    <trip id="bus12" type="bus_bus" depart="14.51" departLane="best" from="-274356784#0" to="-31056963#4"/>
    <trip id="bus13" type="bus_bus" depart="15.72" departLane="best" from="578688106#0" to="566376524#0"/>
    <trip id="bus14" type="bus_bus" depart="16.93" departLane="best" departSpeed="max" from="320096029#0" to="98781778#2"/>
    <trip id="bus15" type="bus_bus" depart="18.14" departLane="best" from="1020614134#4" to="32742009#8"/>
    <trip id="bus16" type="bus_bus" depart="19.34" departLane="best" from="64948176#1" to="361743369#14"/>
    <trip id="bus17" type="bus_bus" depart="20.55" departLane="best" departSpeed="max" from="70551091#0" to="33754885#0"/>
    <trip id="bus18" type="bus_bus" depart="21.76" departLane="best" departSpeed="max" from="443056970" to="-1331435087#1"/>
    <trip id="bus19" type="bus_bus" depart="22.97" departLane="best" from="-571475600#0" to="-93329480#0"/>
    <trip id="bus20" type="bus_bus" depart="24.18" departLane="best" from="-174389072#1" to="-572200165#1"/>
    <trip id="bus21" type="bus_bus" depart="25.39" departLane="best" from="-31016343#6" to="-772734358"/>
    <trip id="bus22" type="bus_bus" depart="26.60" departLane="best" from="361903052" to="1020647246#1"/>
    <trip id="bus23" type="bus_bus" depart="27.81" departLane="best" from="1020116231#2" to="-566376534#0"/>
    <trip id="bus24" type="bus_bus" depart="29.02" departLane="best" departSpeed="max" from="-65066463#1" to="98726666#3"/>
    <trip id="bus25" type="bus_bus" depart="30.23" departLane="best" from="366707919" to="35083879"/>
    <trip id="bus26" type="bus_bus" depart="31.43" departLane="best" from="-364136129#2" to="566201029#0"/>
    <trip id="bus27" type="bus_bus" depart="32.64" departLane="best" from="-361903021#0" to="1053292883"/>
    <trip id="bus28" type="bus_bus" depart="33.85" departLane="best" from="99761775#1" to="366707868#9"/>
    <trip id="bus29" type="bus_bus" depart="35.06" departLane="best" from="32492196#9" to="44007720#1"/>
    <trip id="bus30" type="bus_bus" depart="36.27" departLane="best" from="65066279#2" to="572092415"/>
    <trip id="bus31" type="bus_bus" depart="37.48" departLane="best" from="-571513993#1" to="-107255039#0"/>
    <trip id="bus32" type="bus_bus" depart="38.69" departLane="best" from="-98764923#1" to="-70553071"/>
    <trip id="bus33" type="bus_bus" depart="39.90" departLane="best" departSpeed="max" from="-500738624" to="98731799#3"/>
    <trip id="bus34" type="bus_bus" depart="41.11" departLane="best" from="772734357#2" to="1014563871"/>
    <trip id="bus35" type="bus_bus" depart="42.32" departLane="best" from="367619495#1" to="1131683286#1"/>
    <trip id="bus36" type="bus_bus" depart="43.53" departLane="best" from="93329434#1" to="173395769#4"/>
    <trip id="bus37" type="bus_bus" depart="44.73" departLane="best" departSpeed="max" from="-65063639#1" to="-64948625#0"/>
    <trip id="bus38" type="bus_bus" depart="45.94" departLane="best" from="32527114#1" to="-69481462#1"/>
    <trip id="bus39" type="bus_bus" depart="47.15" departLane="best" from="33179250#2" to="910705194#0"/>
    <trip id="bus40" type="bus_bus" depart="48.36" departLane="best" departSpeed="max" from="1054997096" to="-571475568#0"/>
    <trip id="bus41" type="bus_bus" depart="49.57" departLane="best" from="99869058#1" to="30659108#1"/>
    <trip id="bus42" type="bus_bus" depart="50.78" departLane="best" from="-32338926#7" to="361903057#1"/>
    <trip id="bus43" type="bus_bus" depart="51.99" departLane="best" from="572228246#2" to="1234494293"/>
    <trip id="bus44" type="bus_bus" depart="53.20" departLane="best" from="-160069306#2" to="1054621838#1"/>
    <trip id="bus45" type="bus_bus" depart="54.41" departLane="best" from="99868989#1" to="32111259-AddedOnRampEdge"/>
    <trip id="bus46" type="bus_bus" depart="55.62" departLane="best" from="98778639#9" to="735003532#1"/>
    <trip id="bus47" type="bus_bus" depart="56.82" departLane="best" from="-1017793031#4" to="553789839#1"/>
    <trip id="bus48" type="bus_bus" depart="58.03" departLane="best" from="406070106#0" to="32338996#3"/>
    <trip id="bus49" type="bus_bus" depart="59.24" departLane="best" from="-32339002#2" to="142548946#3"/>
    <trip id="bus50" type="bus_bus" depart="60.45" departLane="best" from="142638429#3" to="98742377#1"/>
    <trip id="bus51" type="bus_bus" depart="61.66" departLane="best" from="770878545#0" to="-69563981#2"/>
    <trip id="bus52" type="bus_bus" depart="62.87" departLane="best" from="261608391#1" to="-43965824#7"/>
    <trip id="bus53" type="bus_bus" depart="64.08" departLane="best" from="932914917#0" to="772734357#0"/>
    <trip id="bus54" type="bus_bus" depart="65.29" departLane="best" departSpeed="max" from="-807266199" to="365878604#4"/>
    <trip id="bus55" type="bus_bus" depart="66.50" departLane="best" departSpeed="max" from="345370798#0" to="-355786867#4"/>
    <trip id="bus56" type="bus_bus" depart="67.71" departLane="best" from="571475529" to="32471665#3"/>
    <trip id="bus57" type="bus_bus" depart="68.92" departLane="best" from="571855737#2" to="32121228-AddedOnRampEdge"/>
    <trip id="bus58" type="bus_bus" depart="70.12" departLane="best" departSpeed="max" from="-1014531453" to="1016770450#1"/>
    <trip id="bus59" type="bus_bus" depart="71.33" departLane="best" departSpeed="max" from="-1018876361" to="945311544"/>
    <trip id="bus60" type="bus_bus" depart="72.54" departLane="best" from="777349283#0" to="64949863#0"/>
    <trip id="bus61" type="bus_bus" depart="73.75" departLane="best" from="-93329453#4" to="-154823204"/>
    <trip id="bus62" type="bus_bus" depart="74.96" departLane="best" from="777336086#11" to="98731854#6"/>
    <trip id="bus63" type="bus_bus" depart="76.17" departLane="best" departSpeed="max" from="-236861480#1" to="261608398#2"/>
    <trip id="bus64" type="bus_bus" depart="77.38" departLane="best" from="-173151793#0" to="571716335"/>
    <trip id="bus65" type="bus_bus" depart="78.59" departLane="best" from="571513996" to="-34046015"/>
    <trip id="bus66" type="bus_bus" depart="79.80" departLane="best" departSpeed="max" from="173151797#0" to="32550733#3"/>
    <trip id="bus67" type="bus_bus" depart="81.01" departLane="best" departSpeed="max" from="-65063639#1" to="772734367"/>
    <trip id="bus68" type="bus_bus" depart="82.21" departLane="best" from="1199290994#0" to="-571089129#0"/>
    <trip id="bus69" type="bus_bus" depart="83.42" departLane="best" from="320096077#4" to="566376527#0"/>
    <trip id="bus70" type="bus_bus" depart="84.63" departLane="best" from="-44092478#9" to="-99869058#0"/>
    <trip id="bus71" type="bus_bus" depart="85.84" departLane="best" from="99868959#3" to="36836641#4"/>
    <trip id="bus72" type="bus_bus" depart="87.05" departLane="best" from="124008305#0" to="31056920#1"/>
    <trip id="bus73" type="bus_bus" depart="88.26" departLane="best" from="-33044587#0" to="-571786796"/>
    <trip id="bus74" type="bus_bus" depart="89.47" departLane="best" departSpeed="max" from="1016053435#0" to="345358572#4"/>
    <trip id="bus75" type="bus_bus" depart="90.68" departLane="best" from="-571716330#0" to="-571475627"/>
    <trip id="bus76" type="bus_bus" depart="91.89" departLane="best" from="-571513991#0" to="915052370"/>
    <trip id="bus77" type="bus_bus" depart="93.10" departLane="best" from="70551059#4" to="-173504684#1"/>
    <trip id="bus78" type="bus_bus" depart="94.30" departLane="best" departSpeed="max" from="-572092390" to="388207419"/>
    <trip id="bus79" type="bus_bus" depart="95.51" departLane="best" from="-553789839#3" to="-345337061#0"/>
    <trip id="bus80" type="bus_bus" depart="96.72" departLane="best" from="98724842#0" to="33232693#3"/>
    <trip id="bus81" type="bus_bus" depart="97.93" departLane="best" from="173106706#1" to="572200111#2"/>
    <trip id="bus82" type="bus_bus" depart="99.14" departLane="best" from="578688107#1" to="-442854006#5"/>
    <trip id="bus83" type="bus_bus" depart="100.35" departLane="best" from="-30431172#0" to="1412118685#0"/>
    <trip id="bus84" type="bus_bus" depart="101.56" departLane="best" from="1200962124#1" to="174295934#2"/>
    <trip id="bus85" type="bus_bus" depart="102.77" departLane="best" from="565853616#8" to="399001301"/>
    <trip id="bus86" type="bus_bus" depart="103.98" departLane="best" from="99227282#1" to="-316136514#0"/>
    <trip id="bus87" type="bus_bus" depart="105.19" departLane="best" from="1065802446" to="1018650864#1"/>
    <trip id="bus88" type="bus_bus" depart="106.40" departLane="best" departSpeed="max" from="70551091#0" to="-64950477#2"/>
    <trip id="bus89" type="bus_bus" depart="107.60" departLane="best" departSpeed="max" from="-404222300" to="156405825"/>
    <trip id="bus90" type="bus_bus" depart="108.81" departLane="best" from="1185344977#1" to="-777349282#1"/>
    <trip id="bus91" type="bus_bus" depart="110.02" departLane="best" departSpeed="max" from="-617849839" to="935235553#1"/>
    <trip id="bus92" type="bus_bus" depart="111.23" departLane="best" from="1412116269#1" to="740651063"/>
    <trip id="bus93" type="bus_bus" depart="112.44" departLane="best" from="32338926#3" to="-142506450"/>
    <trip id="bus94" type="bus_bus" depart="113.65" departLane="best" from="99871026#0" to="64951601#2"/>
    <trip id="bus95" type="bus_bus" depart="114.86" departLane="best" from="98778200#0" to="944849524"/>
    <trip id="bus96" type="bus_bus" depart="116.07" departLane="best" from="65159621" to="-370196236#1"/>
    <trip id="bus97" type="bus_bus" depart="117.28" departLane="best" from="174296804" to="-571097134#0"/>
    <trip id="bus98" type="bus_bus" depart="118.49" departLane="best" from="1058860766#3" to="-154823210#5"/>
    <trip id="bus99" type="bus_bus" depart="119.69" departLane="best" from="1020625349#1" to="99750334#2"/>
    <trip id="bus100" type="bus_bus" depart="120.90" departLane="best" from="-65063642" to="572200082"/>
    <trip id="bus101" type="bus_bus" depart="122.11" departLane="best" from="149827877#1" to="123992414#5"/>
    <trip id="bus102" type="bus_bus" depart="123.32" departLane="best" from="98742741#0" to="99868969#3"/>
    <trip id="bus103" type="bus_bus" depart="124.53" departLane="best" from="32491930#1" to="515647724"/>
    <trip id="bus104" type="bus_bus" depart="125.74" departLane="best" departSpeed="max" from="-352319073#3" to="-98761819#4"/>
    <trip id="bus105" type="bus_bus" depart="126.95" departLane="best" from="98778177#4" to="34045985#6"/>
    <trip id="bus106" type="bus_bus" depart="128.16" departLane="best" departSpeed="max" from="32061364#0" to="571138984"/>
    <trip id="bus107" type="bus_bus" depart="129.37" departLane="best" from="-154823200#0" to="345324244"/>
    <trip id="bus108" type="bus_bus" depart="130.58" departLane="best" from="274845655#4" to="70551027#2"/>
    <trip id="bus109" type="bus_bus" depart="131.79" departLane="best" from="-174389079#0" to="-44092478#7"/>
    <trip id="bus110" type="bus_bus" depart="132.99" departLane="best" from="33971606#5" to="404222300"/>
    <trip id="bus111" type="bus_bus" depart="134.20" departLane="best" from="-571855726#2" to="-33044796#1"/>
    <trip id="bus112" type="bus_bus" depart="135.41" departLane="best" from="904916279#1" to="-64948415"/>
    <trip id="bus113" type="bus_bus" depart="136.62" departLane="best" from="33904984#2" to="361743395#1"/>
    <trip id="bus114" type="bus_bus" depart="137.83" departLane="best" departSpeed="max" from="1168468165" to="345322384#1"/>
    <trip id="bus115" type="bus_bus" depart="139.04" departLane="best" from="30658796#5" to="98724826#9"/>
    <trip id="bus116" type="bus_bus" depart="140.25" departLane="best" from="-442854006#6" to="512846130#2"/>
    <trip id="bus117" type="bus_bus" depart="141.46" departLane="best" from="-572092427#1" to="1131704691"/>
    <trip id="bus118" type="bus_bus" depart="142.67" departLane="best" from="380118437#5" to="-98781828#1"/>
    <trip id="bus119" type="bus_bus" depart="143.88" departLane="best" departSpeed="max" from="-98765710" to="571433883#1"/>
    <trip id="bus120" type="bus_bus" depart="145.08" departLane="best" from="-173504668#8" to="173395364#8"/>
    <trip id="bus121" type="bus_bus" depart="146.29" departLane="best" from="99870141#1" to="99868989#1"/>
    <trip id="bus122" type="bus_bus" depart="147.50" departLane="best" departSpeed="max" from="-173504694" to="-571096571#0"/>
    <trip id="bus123" type="bus_bus" depart="148.71" departLane="best" from="-65063642" to="98724798#4"/>
    <trip id="bus124" type="bus_bus" depart="149.92" departLane="best" departSpeed="max" from="785228945" to="790882022#1"/>
    <trip id="bus125" type="bus_bus" depart="151.13" departLane="best" from="1020107121#0" to="-361903060#1"/>
    <trip id="bus126" type="bus_bus" depart="152.34" departLane="best" departSpeed="max" from="64948316#0" to="44851276"/>
    <trip id="bus127" type="bus_bus" depart="153.55" departLane="best" departSpeed="max" from="346382782#0" to="99756469#1"/>
    <trip id="bus128" type="bus_bus" depart="154.76" departLane="best" from="579441002" to="-98781737#0"/>
    <trip id="bus129" type="bus_bus" depart="155.97" departLane="best" from="370196240#1" to="98729116#4"/>
    <trip id="bus130" type="bus_bus" depart="157.17" departLane="best" departSpeed="max" from="-345332203" to="-32852431"/>
    <trip id="bus131" type="bus_bus" depart="158.38" departLane="best" from="-320096077#5" to="32756842#9"/>
    <trip id="bus132" type="bus_bus" depart="159.59" departLane="best" from="-65823943" to="347321499#1"/>
    <trip id="bus133" type="bus_bus" depart="160.80" departLane="best" departSpeed="max" from="48835738#0" to="-554514695#0"/>
    <trip id="bus134" type="bus_bus" depart="162.01" departLane="best" departSpeed="max" from="174857548" to="915052369#2"/>
    <trip id="bus135" type="bus_bus" depart="163.22" departLane="best" from="65066816#5" to="-30607990#1"/>
    <trip id="bus136" type="bus_bus" depart="164.43" departLane="best" from="1200962124#1" to="-76956352#1"/>
    <trip id="bus137" type="bus_bus" depart="165.64" departLane="best" from="-1016174383#1" to="571855726#2"/>
    <trip id="bus138" type="bus_bus" depart="166.85" departLane="best" from="362477158#2" to="-69481446#0"/>
    <trip id="bus139" type="bus_bus" depart="168.06" departLane="best" from="569739030#1" to="32742009#3"/>
    <trip id="bus140" type="bus_bus" depart="169.27" departLane="best" from="1220292196#2" to="-1017986882#1"/>
    <trip id="bus141" type="bus_bus" depart="170.47" departLane="best" from="-174295725#1" to="80397158#3"/>
    <trip id="bus142" type="bus_bus" depart="171.68" departLane="best" departSpeed="max" from="914671748#0" to="32526486#1"/>
    <trip id="bus143" type="bus_bus" depart="172.89" departLane="best" departSpeed="max" from="64948321#0" to="343467685#0"/>
    <trip id="bus144" type="bus_bus" depart="174.10" departLane="best" departSpeed="max" from="-346388982" to="-33971606#2"/>
    <trip id="bus145" type="bus_bus" depart="175.31" departLane="best" from="-93329483#1" to="910848971#3"/>
    <trip id="bus146" type="bus_bus" depart="176.52" departLane="best" from="576476626#1" to="733400344"/>
    <trip id="bus147" type="bus_bus" depart="177.73" departLane="best" from="910322289" to="-566408609#3"/>
    <trip id="bus148" type="bus_bus" depart="178.94" departLane="best" departSpeed="max" from="-617849839" to="-32061364#0"/>
    <trip id="bus149" type="bus_bus" depart="180.15" departLane="best" from="-352319073#1" to="962200672#2"/>
    <trip id="bus150" type="bus_bus" depart="181.36" departLane="best" from="70553089#1" to="98794394#4"/>
    <trip id="bus151" type="bus_bus" depart="182.56" departLane="best" from="578921301" to="792200422#0"/>
    <trip id="bus152" type="bus_bus" depart="183.77" departLane="best" departSpeed="max" from="-1022069967" to="569999984#0"/>
    <trip id="bus153" type="bus_bus" depart="184.98" departLane="best" from="-99870141#0" to="971815213#1"/>
    <trip id="bus154" type="bus_bus" depart="186.19" departLane="best" from="576911142#4" to="756713010"/>
    <trip id="bus155" type="bus_bus" depart="187.40" departLane="best" from="578921301" to="-70553064#0"/>
    <trip id="bus156" type="bus_bus" depart="188.61" departLane="best" from="572113111#4" to="-324584592"/>
    <trip id="bus157" type="bus_bus" depart="189.82" departLane="best" from="75817456#5" to="725792102"/>
    <trip id="bus158" type="bus_bus" depart="191.03" departLane="best" from="-571070929" to="581953588"/>
    <trip id="bus159" type="bus_bus" depart="192.24" departLane="best" from="574245996#3" to="-571855744#0"/>
    <trip id="bus160" type="bus_bus" depart="193.45" departLane="best" departSpeed="max" from="-1020618992#1" to="-447241287"/>
    <trip id="bus161" type="bus_bus" depart="194.66" departLane="best" from="-99868895" to="75817456#4"/>
    <trip id="bus162" type="bus_bus" depart="195.86" departLane="best" from="98775555#0" to="-777352589#1"/>
    <trip id="bus163" type="bus_bus" depart="197.07" departLane="best" from="363162718#1" to="1153073310#0"/>
    <trip id="bus164" type="bus_bus" depart="198.28" departLane="best" from="99215351" to="32338988#0"/>
    <trip id="bus165" type="bus_bus" depart="199.49" departLane="best" from="98729106#0" to="-32852197"/>
    <trip id="bus166" type="bus_bus" depart="200.70" departLane="best" from="98778440#8" to="-43965824#6"/>
    <trip id="bus167" type="bus_bus" depart="201.91" departLane="best" from="98764197#3" to="-70551077#1"/>
    <trip id="bus168" type="bus_bus" depart="203.12" departLane="best" from="-32289416#0" to="142548946#0"/>
    <trip id="bus169" type="bus_bus" depart="204.33" departLane="best" from="565853616#11" to="1008235924#0"/>
    <trip id="bus170" type="bus_bus" depart="205.54" departLane="best" departSpeed="max" from="345361094" to="30831757#1"/>
    <trip id="bus171" type="bus_bus" depart="206.75" departLane="best" from="1021180591#1" to="33714165"/>
    <trip id="bus172" type="bus_bus" depart="207.95" departLane="best" from="-626981630#5" to="46752298#16"/>
    <trip id="bus173" type="bus_bus" depart="209.16" departLane="best" from="-1016047790" to="936587470#1"/>
    <trip id="bus174" type="bus_bus" depart="210.37" departLane="best" departSpeed="max" from="320096059#0" to="542822345"/>
    <trip id="bus175" type="bus_bus" depart="211.58" departLane="best" from="569992569#2" to="391647860#1"/>
    <trip id="bus176" type="bus_bus" depart="212.79" departLane="best" from="1019217744#0" to="-173504666"/>
    <trip id="bus177" type="bus_bus" depart="214.00" departLane="best" from="370196244#4" to="1017793031#1"/>
    <trip id="bus178" type="bus_bus" depart="215.21" departLane="best" from="-98742774#0" to="669626435#1"/>
    <trip id="bus179" type="bus_bus" depart="216.42" departLane="best" from="506208223#14" to="-98783696#1"/>
    <trip id="bus180" type="bus_bus" depart="217.63" departLane="best" departSpeed="max" from="-935235553#1" to="1187350269"/>
    <trip id="bus181" type="bus_bus" depart="218.84" departLane="best" from="1065790328#4" to="-98742745"/>
    <trip id="bus182" type="bus_bus" depart="220.04" departLane="best" from="-33710989#0" to="1230007927#1"/>
    <trip id="bus183" type="bus_bus" depart="221.25" departLane="best" from="98729141#0" to="424408914#1"/>
    <trip id="bus184" type="bus_bus" depart="222.46" departLane="best" departSpeed="max" from="-910848978" to="325416956#1"/>
    <trip id="bus185" type="bus_bus" depart="223.67" departLane="best" departSpeed="max" from="-1014531453" to="-92367210#2"/>
    <trip id="bus186" type="bus_bus" depart="224.88" departLane="best" from="122726426#1" to="34317609#1"/>
    <trip id="bus187" type="bus_bus" depart="226.09" departLane="best" from="367596777#6" to="174295728#1"/>
    <trip id="bus188" type="bus_bus" depart="227.30" departLane="best" from="141166087#4" to="-571097133"/>
    <trip id="bus189" type="bus_bus" depart="228.51" departLane="best" from="173151561#1" to="911274247#0"/>
    <trip id="bus190" type="bus_bus" depart="229.72" departLane="best" from="576476625#0" to="-370196255#2"/>
    <trip id="bus191" type="bus_bus" depart="230.93" departLane="best" from="-236860857#0" to="31016285#2"/>
    <trip id="bus192" type="bus_bus" depart="232.14" departLane="best" from="361881297#1" to="1018223256"/>
    <trip id="bus193" type="bus_bus" depart="233.34" departLane="best" departSpeed="max" from="579939270" to="571387673#5"/>
    <trip id="bus194" type="bus_bus" depart="234.55" departLane="best" departSpeed="max" from="382886142" to="-571777660#0"/>
    <trip id="bus195" type="bus_bus" depart="235.76" departLane="best" from="-576485683" to="230675925"/>
    <trip id="bus196" type="bus_bus" depart="236.97" departLane="best" from="654386427#0" to="-174295715#0"/>
    <trip id="bus197" type="bus_bus" depart="238.18" departLane="best" from="-43965824#6" to="441448377#0"/>
    <trip id="bus198" type="bus_bus" depart="239.39" departLane="best" from="236860857#4" to="-64948316#0"/>
    <trip id="bus199" type="bus_bus" depart="240.60" departLane="best" from="36828865#2" to="-1016832979"/>
    <trip id="bus200" type="bus_bus" depart="241.81" departLane="best" from="571096600#1" to="571855711#1"/>
    <trip id="bus201" type="bus_bus" depart="243.02" departLane="best" from="-320096069#0" to="124008305#0"/>
    <trip id="bus202" type="bus_bus" depart="244.23" departLane="best" from="-370159711" to="98742776#2"/>
    <trip id="bus203" type="bus_bus" depart="245.43" departLane="best" from="30614012#5" to="-142506450"/>
    <trip id="bus204" type="bus_bus" depart="246.64" departLane="best" departSpeed="max" from="-617849839" to="674586585#1"/>
    <trip id="bus205" type="bus_bus" depart="247.85" departLane="best" from="149827884#1" to="578688121#5"/>
    <trip id="bus206" type="bus_bus" depart="249.06" departLane="best" from="375277020#0" to="99756829#1"/>
    <trip id="bus207" type="bus_bus" depart="250.27" departLane="best" from="34039441#3" to="98734380#1"/>
    <trip id="bus208" type="bus_bus" depart="251.48" departLane="best" from="905766474#1" to="35262014#0"/>
    <trip id="bus209" type="bus_bus" depart="252.69" departLane="best" from="504305125#1" to="30614070#2"/>
    <trip id="bus210" type="bus_bus" depart="253.90" departLane="best" from="64948216#2" to="325416956#0"/>
    <trip id="bus211" type="bus_bus" depart="255.11" departLane="best" from="909602593#4" to="571096580#2"/>
    <trip id="bus212" type="bus_bus" depart="256.32" departLane="best" departSpeed="max" from="173151797#0" to="-65805199#0"/>
    <trip id="bus213" type="bus_bus" depart="257.52" departLane="best" departSpeed="max" from="-579609258" to="365579762#6"/>
    <trip id="bus214" type="bus_bus" depart="258.73" departLane="best" from="571513996" to="31879070"/>
    <trip id="bus215" type="bus_bus" depart="259.94" departLane="best" departSpeed="max" from="352562461#0" to="-75817456#3"/>
    <trip id="bus216" type="bus_bus" depart="261.15" departLane="best" departSpeed="max" from="-174295934#2" to="-915052369#0"/>
    <trip id="bus217" type="bus_bus" depart="262.36" departLane="best" from="-65806168#1" to="1016167553"/>
    <trip id="bus218" type="bus_bus" depart="263.57" departLane="best" from="32049034" to="-345370795"/>
    <trip id="bus219" type="bus_bus" depart="264.78" departLane="best" from="447230445#2" to="-160234107#3"/>
    <trip id="bus220" type="bus_bus" depart="265.99" departLane="best" from="107634568#5" to="32492196#5"/>
    <trip id="bus221" type="bus_bus" depart="267.20" departLane="best" from="1153499726#1" to="-565856158#1"/>
    <trip id="bus222" type="bus_bus" depart="268.41" departLane="best" from="1180137778" to="914535879#0"/>
    <trip id="bus223" type="bus_bus" depart="269.62" departLane="best" from="33179085#0" to="44129557#2"/>
    <trip id="bus224" type="bus_bus" depart="270.82" departLane="best" from="69481460#1" to="571795290"/>
    <trip id="bus225" type="bus_bus" depart="272.03" departLane="best" from="1020654309" to="-1016833497"/>
    <trip id="bus226" type="bus_bus" depart="273.24" departLane="best" departSpeed="max" from="1018192147" to="571444022#1"/>
    <trip id="bus227" type="bus_bus" depart="274.45" departLane="best" from="664956645#1" to="98742373#1"/>
    <trip id="bus228" type="bus_bus" depart="275.66" departLane="best" from="1162523777#1" to="571136742#1"/>
    <trip id="bus229" type="bus_bus" depart="276.87" departLane="best" from="-566376534#0" to="-571475576"/>
    <trip id="bus230" type="bus_bus" depart="278.08" departLane="best" departSpeed="max" from="123992420#0" to="-1054984107"/>
    <trip id="bus231" type="bus_bus" depart="279.29" departLane="best" from="1069405446" to="-37017745#0"/>
    <trip id="bus232" type="bus_bus" depart="280.50" departLane="best" from="159739053#6" to="-33971606#5"/>
    <trip id="bus233" type="bus_bus" depart="281.71" departLane="best" from="34941035#4" to="-1053279659"/>
    <trip id="bus234" type="bus_bus" depart="282.91" departLane="best" departSpeed="max" from="1052646360#0" to="33045003"/>
    <trip id="bus235" type="bus_bus" depart="284.12" departLane="best" departSpeed="max" from="-1050506351#3" to="367447068#1"/>
    <trip id="bus236" type="bus_bus" depart="285.33" departLane="best" from="-506208223#12" to="1016857904"/>
    <trip id="bus237" type="bus_bus" depart="286.54" departLane="best" from="571458582" to="1053292883"/>
    <trip id="bus238" type="bus_bus" depart="287.75" departLane="best" from="571108744#2" to="64949863#4"/>
    <trip id="bus239" type="bus_bus" depart="288.96" departLane="best" departSpeed="max" from="-626441114#2" to="-196862977#4"/>
    <trip id="bus240" type="bus_bus" depart="290.17" departLane="best" departSpeed="max" from="-1018876361" to="32471996#1"/>
    <trip id="bus241" type="bus_bus" depart="291.38" departLane="best" from="999678326#0" to="1020063660"/>
    <trip id="bus242" type="bus_bus" depart="292.59" departLane="best" from="367447069#0" to="572121555#2"/>
    <trip id="bus243" type="bus_bus" depart="293.80" departLane="best" from="367447088#8" to="571458586"/>
    <trip id="bus244" type="bus_bus" depart="295.01" departLane="best" from="98732802#3" to="-506208223#13"/>
    <trip id="bus245" type="bus_bus" depart="296.21" departLane="best" from="-1019217742" to="-355786865#0"/>
    <trip id="bus246" type="bus_bus" depart="297.42" departLane="best" from="-33707788#1" to="388207449#2"/>
    <trip id="bus247" type="bus_bus" depart="298.63" departLane="best" from="325713404" to="-571475529"/>
    <trip id="bus248" type="bus_bus" depart="299.84" departLane="best" departSpeed="max" from="44092496#0" to="571809748"/>
    <trip id="bus249" type="bus_bus" depart="301.05" departLane="best" departSpeed="max" from="-361903057#1" to="34940825#2"/>
    <trip id="bus250" type="bus_bus" depart="302.26" departLane="best" from="571089145#3" to="-32851576#1"/>
    <trip id="bus251" type="bus_bus" depart="303.47" departLane="best" from="-322288276#1" to="-1052671388"/>
    <trip id="bus252" type="bus_bus" depart="304.68" departLane="best" from="-98724813#2" to="424408914#2"/>
    <trip id="bus253" type="bus_bus" depart="305.89" departLane="best" from="98742767#4" to="113921059#1"/>
    <trip id="bus254" type="bus_bus" depart="307.10" departLane="best" departSpeed="max" from="47324222#0" to="-174295937"/>
    <trip id="bus255" type="bus_bus" depart="308.30" departLane="best" from="44008181#3" to="361903057#0"/>
    <trip id="bus256" type="bus_bus" depart="309.51" departLane="best" departSpeed="max" from="-31056914#2" to="571855756"/>
    <trip id="bus257" type="bus_bus" depart="310.72" departLane="best" from="654742597#1" to="346965143#0"/>
    <trip id="bus258" type="bus_bus" depart="311.93" departLane="best" from="-33044609#0" to="99730711#0"/>
    <trip id="bus259" type="bus_bus" depart="313.14" departLane="best" departSpeed="max" from="572092404#0" to="1019217745#1"/>
    <trip id="bus260" type="bus_bus" depart="314.35" departLane="best" from="1220292198#8" to="1022089939"/>
    <trip id="bus261" type="bus_bus" depart="315.56" departLane="best" from="28747383#3" to="1018837045#0"/>
    <trip id="bus262" type="bus_bus" depart="316.77" departLane="best" from="65159632#4" to="626437227"/>
    <trip id="bus263" type="bus_bus" depart="317.98" departLane="best" from="-320096034#3" to="98763622#1"/>