<?xml version="1.0" encoding="UTF-8"?>

<!-- generated on 2025-11-24 15:20:05.293558 by Eclipse SUMO $Id: ptlines2flows.py v1_3_1+0313-ccb31df3eb jakob.erdmann@dlr.de 2019-09-02 13:26:32 +0200 $ v1_25_0+0000-ac6c5a6752d
<configuration>
    <net-file value="C:\Users\julil\Sumo\2025-11-24-15-19-17\osm.net.xml.gz"/>
    <ptlines-file value="C:\Users\julil\Sumo\2025-11-24-15-19-17\osm_ptlines.xml"/>
    <ptstops-file value="C:\Users\julil\Sumo\2025-11-24-15-19-17\osm_stops.add.xml"/>
    <output-file value="C:\Users\julil\Sumo\2025-11-24-15-19-17\osm_pt.rou.xml"/>
    <stopinfos-file value="C:\Users\julil\Sumo\2025-11-24-15-19-17\stopinfos.xml"/>
    <routes-file value="C:\Users\julil\Sumo\2025-11-24-15-19-17\vehroutes.xml"/>
    <trips-file value="C:\Users\julil\Sumo\2025-11-24-15-19-17\trips.trips.xml"/>
    <min-stops value="0"/>
    <extend-to-fringe value="True"/>
    <random-begin value="True"/>
    <seed value="42"/>
    <ignore-errors value="True"/>
    <vtype-prefix value="pt_"/>
    <verbose value="True"/>
</configuration>
-->

<routes xmlns:xsi="http://www.w3.org/2001/XMLSchema-instance" xsi:noNamespaceSchemaLocation="http://sumo.dlr.de/xsd/routes_file.xsd">
    <vType id="pt_bus" vClass="bus" speedFactor="0.95"/>
    <vType id="pt_tram" vClass="tram" speedFactor="1.0"/>
    <vType id="pt_train" vClass="rail"/>
    <vType id="pt_subway" vClass="subway"/>
    <vType id="pt_light_rail" vClass="rail_urban"/>
    <vType id="pt_monorail" vClass="rail_urban"/>
    <vType id="pt_trolleybus" vClass="bus" speedFactor="0.95"/>
    <vType id="pt_minibus" vClass="bus" speedFactor="0.95"/>
    <vType id="pt_share_taxi" vClass="taxi" speedFactor="0.95"/>
    <vType id="pt_aerialway" vClass="cable_car" length="2.5" width="2" personCapacity="4"/>
    <vType id="pt_ferry" vClass="ship"/>
    <trip id="0_subway_A:0" type="pt_subway" depart="15.0" departLane="best" from="1018611997" to="34939281#1">
        <stop busStop="267547094" duration="30"/>  <!-- Exposiciones -->
        <stop busStop="370046773" duration="30"/>  <!-- Alpujarra -->
        <stop busStop="1211554020" duration="30"/>  <!-- San Antonio -->
        <stop busStop="267547098" duration="30"/>  <!-- Parque Berrío -->
        <stop busStop="267547104" duration="30"/>  <!-- Prado -->
        <stop busStop="267547106" duration="30"/>  <!-- Hospital -->
        <stop busStop="267547115" duration="30"/>  <!-- Universidad -->
        <stop busStop="267547778" duration="30"/>  <!-- Caribe -->
    </trip>
    <trip id="1_subway_A:1" type="pt_subway" depart="52.0" departLane="best" from="182779999#0" to="182779999#1">
        <stop busStop="1210026887" duration="30"/>  <!-- Caribe -->
        <stop busStop="1213875058" duration="30"/>  <!-- Universidad -->
        <stop busStop="1210026924" duration="30"/>  <!-- Hospital -->
        <stop busStop="1210026908" duration="30"/>  <!-- Prado -->
        <stop busStop="1210027001" duration="30"/>  <!-- Parque Berrío -->
        <stop busStop="1211554021" duration="30"/>  <!-- San Antonio -->
        <stop busStop="1210026946" duration="30"/>  <!-- Alpujarra -->
        <stop busStop="1210026986" duration="30"/>  <!-- Exposiciones -->
    </trip>
    <trip id="2_subway_B:0" type="pt_subway" depart="133.0" departLane="best" from="105564897#0" to="105564897#1">
        <stop busStop="1215434359" duration="30"/>  <!-- San Antonio -->
        <stop busStop="8644050780" duration="30"/>  <!-- Cisneros -->
        <stop busStop="1215435490" duration="30"/>  <!-- Suramericana -->
        <stop busStop="1215437246" duration="30"/>  <!-- Estadio -->
        <stop busStop="1215445793" duration="30"/>  <!-- Floresta -->
        <stop busStop="1215491009" duration="30"/>  <!-- Santa Lucía -->
    </trip>
    <trip id="3_subway_B:1" type="pt_subway" depart="165.0" departLane="best" from="105540787" to="105540787">
        <stop busStop="1215491010" duration="30"/>  <!-- Santa Lucía -->
        <stop busStop="1215445790" duration="30"/>  <!-- Floresta -->
        <stop busStop="1215437251" duration="30"/>  <!-- Estadio -->
        <stop busStop="1215435489" duration="30"/>  <!-- Suramericana -->
        <stop busStop="8660247118" duration="30"/>  <!-- Cisneros -->
        <stop busStop="13227444201" duration="30"/>  <!-- San Antonio -->
    </trip>
    <trip id="4_bus_2:0" type="pt_bus" depart="253.0" departLane="best" from="362477589#1" to="1020415215">
        <stop busStop="5144879974" duration="30"/>  <!-- Palos Verdes -->
    </trip>
    <trip id="5_tram_T-A:0" type="pt_tram" depart="383.0" departLane="best" from="933924267#0" to="933933954#17">
        <stop busStop="4100629928" duration="30"/>  <!-- San Antonio -->
    </trip>
    <trip id="6_tram_T-A:1" type="pt_tram" depart="406.0" departLane="best" from="1427513655" to="933924264#15">
        <stop busStop="4351098851" duration="30"/>  <!-- San Antonio -->
    </trip>
    <trip id="8_bus_C3-001:1" type="pt_bus" depart="535.0" departLane="best" from="576504528#0" to="576504565#10">
        <stop busStop="8417220584" duration="30"/>  <!-- Cra 81 #32FF-12 -->
    </trip>
</routes>
