<?xml version="1.0" encoding="UTF-8"?>
<?xml version='1.0' encoding='utf8'?>
<routes xmlns:xsi="http://www.w3.org/2001/XMLSchema-instance" xsi:noNamespaceSchemaLocation="http://sumo.dlr.de/xsd/routes_file.xsd"><vType id="pt_bus" accel="2.6" decel="4.5" sigma="0.5" length="12.0" maxSpeed="13.89" vClass="bus" /><vType id="GENERIC_PASSENGER" vClass="passenger" length="5.0" maxSpeed="30.0" /><route id="Circular_Sur_302" edges="46594805#2 93329466#0 93329466#1 43965349#0 -571809761#0 -571809760#4 -571809760#3" /><vehicle id="veh_Circular_Sur_302" type="pt_bus" depart="60" route="Circular_Sur_302" /></routes>